* netlist generated with vector fitting poles and residues

.subckt total_network node_1 node_2 node_3 node_4 
X_11 node_1 0 yp11
X_12 node_1 node_2 yp12
X_13 node_1 node_3 yp13
X_14 node_1 node_4 yp14
X_22 node_2 0 yp22
X_23 node_2 node_3 yp23
X_24 node_2 node_4 yp24
X_33 node_3 0 yp33
X_34 node_3 node_4 yp34
X_44 node_4 0 yp44
.ends


* Y'11
.subckt yp11 node_1 0
* Branch 0
Rabr0 node_1 netRa0 -7.958350840997372
Lbr0 netRa0 netL0 -1.1830781945885065e-14
Rbbr0 netL0 0 18.480686487332108
Cbr0 netL0 0 -1.0265924759775643e-16

* Branch 1
Rabr1 node_1 netRa1 -9.547000796032664
Lbr1 netRa1 netL1 -2.0462890393332578e-14
Rbbr1 netL1 0 38.30791978553425
Cbr1 netL1 0 -7.848064479213709e-17

* Branch 2
Rabr2 node_1 netRa2 29.660751149527073
Lbr2 netRa2 netL2 5.567332836614375e-14
Rbbr2 netL2 0 -92.16072618896987
Cbr2 netL2 0 2.6111049786766096e-17

* Branch 3
Rabr3 node_1 netRa3 -1.4955344832506823
Lbr3 netRa3 netL3 1.1845833478325627e-14
Rbbr3 netL3 0 26.67574932531169
Cbr3 netL3 0 1.6825591969860572e-16

* Branch 4
Rabr4 node_1 netRa4 18.7390095532832
Lbr4 netRa4 netL4 -2.200650240562563e-14
Rbbr4 netL4 0 -30.326081487126736
Cbr4 netL4 0 -3.6317273357725894e-17

* Branch 5
Rabr5 node_1 netRa5 16.26710689939542
Lbr5 netRa5 netL5 -2.7095295741490392e-14
Rbbr5 netL5 0 -37.69947520250933
Cbr5 netL5 0 -4.108380802728898e-17

* Branch 6
Rabr6 node_1 netRa6 118.351027863159
Lbr6 netRa6 netL6 -1.795266720448153e-13
Rbbr6 netL6 0 -232.65152957858172
Cbr6 netL6 0 -6.138460184620919e-18

* Branch 7
Rabr7 node_1 netRa7 -211472.7658854312
Lbr7 netRa7 netL7 -2.4237976027954514e-11
Rbbr7 netL7 0 212602.65711563829
Cbr7 netL7 0 -5.409109052142843e-22

* Branch 8
Rabr8 node_1 netRa8 53.53394572136277
Lbr8 netRa8 netL8 9.726560890464266e-14
Rbbr8 netL8 0 -154.7650925924621
Cbr8 netL8 0 1.2328355414907465e-17

* Branch 9
Rabr9 node_1 netRa9 2.7920478938638644
Lbr9 netRa9 netL9 -1.6387184921058104e-14
Rbbr9 netL9 0 -106.86558578614252
Cbr9 netL9 0 -4.7837870456957386e-17

* Branch 10
Rabr10 node_1 netRa10 -23.697521161904085
Lbr10 netRa10 netL10 6.13214538537524e-14
Rbbr10 netL10 0 423.38247836024397
Cbr10 netL10 0 5.744708138415952e-18

* Branch 11
Rabr11 node_1 netRa11 801.4739331763558
Lbr11 netRa11 netL11 -1.2707384197811613e-13
Rbbr11 netL11 0 -855.1948026999648
Cbr11 netL11 0 -1.8470991602844678e-19

* Branch 12
Rabr12 node_1 netRa12 -96.35893016869896
Lbr12 netRa12 netL12 1.9113732202650903e-13
Rbbr12 netL12 0 1064.4948155405039
Cbr12 netL12 0 1.7883153061199e-18

* Branch 13
Rabr13 node_1 netRa13 1706.4623176470718
Lbr13 netRa13 netL13 -1.179203100120588e-12
Rbbr13 netL13 0 -4095.968201148439
Cbr13 netL13 0 -1.663440388592695e-19

* Branch 14
Rabr14 node_1 netRa14 259.7431774345058
Lbr14 netRa14 netL14 -2.8322048401396036e-13
Rbbr14 netL14 0 -1074.3433558744946
Cbr14 netL14 0 -9.930693507077896e-19

* Branch 15
Rabr15 node_1 netRa15 2949.4321621005806
Lbr15 netRa15 netL15 2.279866236610326e-13
Rbbr15 netL15 0 -2971.271375867113
Cbr15 netL15 0 2.6055811678849677e-20

* Branch 16
Rabr16 node_1 netRa16 -45.312884749438815
Lbr16 netRa16 netL16 3.470146174361002e-14
Rbbr16 netL16 0 78.01680187020952
Cbr16 netL16 0 9.672540523614614e-18

* Branch 17
Rabr17 node_1 netRa17 24567.286888855524
Lbr17 netRa17 netL17 -1.5300912474542416e-11
Rbbr17 netL17 0 -47686.21400123367
Cbr17 netL17 0 -1.2916085681504447e-20

* Branch 18
Rabr18 node_1 netRa18 -80774.3552526048
Lbr18 netRa18 netL18 2.6788081188723272e-11
Rbbr18 netL18 0 111818.25233886958
Cbr18 netL18 0 2.9483398189280454e-21

* Branch 19
Rabr19 node_1 netRa19 -325.9557709978776
Lbr19 netRa19 netL19 -8.126458811124661e-14
Rbbr19 netL19 0 351.1491608773507
Cbr19 netL19 0 -7.130471725271953e-19

* Branch 20
Rabr20 node_1 netRa20 480.64291026911445
Lbr20 netRa20 netL20 3.492356673556951e-12
Rbbr20 netL20 0 -40510.534825760464
Cbr20 netL20 0 2.0496328875553726e-19

* Branch 21
Rabr21 node_1 netRa21 -119356.81532768498
Lbr21 netRa21 netL21 -9.921723475439083e-11
Rbbr21 netL21 0 192164.12290057822
Cbr21 netL21 0 -4.387181530011197e-21

* Branch 22
Rabr22 node_1 netRa22 22.66063811433702
Lbr22 netRa22 netL22 1.2800745816290323e-13
Rbbr22 netL22 0 -2388.7981548310668
Cbr22 netL22 0 2.5931179638072768e-18

* Branch 23
Rabr23 node_1 netRa23 -522.7808412739612
Lbr23 netRa23 netL23 -1.0685853050506917e-11
Rbbr23 netL23 0 233057.79280663808
Cbr23 netL23 0 -1.2578491239012903e-19

* Branch 24
Rabr24 node_1 netRa24 -11542.39987717671
Lbr24 netRa24 netL24 -1.620215336645429e-11
Rbbr24 netL24 0 66066.87876703734
Cbr24 netL24 0 -2.167305515129852e-20

* Branch 25
Rabr25 node_1 netRa25 24352.563707480364
Lbr25 netRa25 netL25 3.3369418292597e-11
Rbbr25 netL25 0 -174653.8346666256
Cbr25 netL25 0 7.99497656555551e-21

* Branch 26
Rabr26 node_1 netRa26 8802.165802264693
Lbr26 netRa26 netL26 1.1177864681503005e-12
Rbbr26 netL26 0 -9227.736902082155
Cbr26 netL26 0 1.378529683808992e-20

* Branch 27
Rabr27 node_1 netRa27 1266.933609467216
Lbr27 netRa27 netL27 -2.169042991967436e-12
Rbbr27 netL27 0 -5548.817044852457
Cbr27 netL27 0 -3.0163691854265153e-19

* Branch 28
Rabr28 node_1 netRa28 -965931.7074550565
Lbr28 netRa28 netL28 -1.2743767681824732e-10
Rbbr28 netL28 0 984169.8604684459
Cbr28 netL28 0 -1.3428799065002862e-22

* Branch 29
Rabr29 node_1 netRa29 -867.5449481435481
Lbr29 netRa29 netL29 9.30945287218803e-13
Rbbr29 netL29 0 2121.8367455738107
Cbr29 netL29 0 4.989815136390193e-19

* Branch 30
Rabr30 node_1 netRa30 184920.0871586301
Lbr30 netRa30 netL30 3.386358381326502e-11
Rbbr30 netL30 0 -187799.4202405553
Cbr30 netL30 0 9.773586415705232e-22

* Branch 31
Rabr31 node_1 netRa31 6485.067840816036
Lbr31 netRa31 netL31 -7.342240867588766e-12
Rbbr31 netL31 0 -27466.59258282131
Cbr31 netL31 0 -4.064707072771984e-20

* Branch 32
Rabr32 node_1 netRa32 -9023.55938032158
Lbr32 netRa32 netL32 -3.466203537210907e-11
Rbbr32 netL32 0 134820.1029308933
Cbr32 netL32 0 -2.9814707598323885e-20

* Branch 33
Rabr33 node_1 netRa33 -56236.363418616565
Lbr33 netRa33 netL33 -9.358813296005255e-11
Rbbr33 netL33 0 188899.17516569103
Cbr33 netL33 0 -8.981530942163712e-21

* Branch 34
Rabr34 node_1 netRa34 -19574.37043569401
Lbr34 netRa34 netL34 -1.710378744167395e-11
Rbbr34 netL34 0 35520.22417189599
Cbr34 netL34 0 -2.4843291900477445e-20

* Branch 35
Rabr35 node_1 netRa35 -63.10540501890019
Lbr35 netRa35 netL35 6.097017862347596e-14
Rbbr35 netL35 0 170.063716556393
Cbr35 netL35 0 5.623816759996663e-18

* Branch 36
Rabr36 node_1 netRa36 -18313168.461724065
Lbr36 netRa36 netL36 3.0399812102895766e-10
Rbbr36 netL36 0 18324686.238920897
Cbr36 netL36 0 9.057320605546641e-25

* Branch 37
Rabr37 node_1 netRa37 -402781.8435554207
Lbr37 netRa37 netL37 -1.5577032708558573e-10
Rbbr37 netL37 0 579456.0193996066
Cbr37 netL37 0 -6.69875550564155e-22

* Branch 38
Rabr38 node_1 netRa38 70.23956584178106
Lbr38 netRa38 netL38 -5.0214956362109344e-14
Rbbr38 netL38 0 -135.91307414717426
Cbr38 netL38 0 -5.224622041410371e-18

* Branch 39
Rabr39 node_1 netRa39 2946.348584279787
Lbr39 netRa39 netL39 1.5041603351704735e-12
Rbbr39 netL39 0 -3357.6934994853727
Cbr39 netL39 0 1.5276854008103075e-19

* Branch 40
Rabr40 node_1 netRa40 -7277.389187703382
Lbr40 netRa40 netL40 -4.848264735150266e-11
Rbbr40 netL40 0 1096400.4249807002
Cbr40 netL40 0 -6.459998362369965e-21

* Branch 41
Rabr41 node_1 netRa41 372.19807067377326
Lbr41 netRa41 netL41 -1.0632512638782372e-12
Rbbr41 netL41 0 -1904.9175349040172
Cbr41 netL41 0 -1.4624664707807206e-18

* Branch 42
Rabr42 node_1 netRa42 55868.84032372777
Lbr42 netRa42 netL42 -1.9172554512143216e-11
Rbbr42 netL42 0 -60479.60688540641
Cbr42 netL42 0 -5.658690709807397e-21

* Branch 43
Rabr43 node_1 netRa43 -4099.412375553267
Lbr43 netRa43 netL43 -7.171476063064179e-12
Rbbr43 netL43 0 13176.880451319255
Cbr43 netL43 0 -1.3461762392512071e-19

* Branch 44
Rabr44 node_1 netRa44 -532.6206133362379
Lbr44 netRa44 netL44 -3.1944166257039894e-12
Rbbr44 netL44 0 14045.098496984232
Cbr44 netL44 0 -4.479967563917894e-19

* Branch 45
Rabr45 node_1 netRa45 -5007700.648679972
Lbr45 netRa45 netL45 3.450047768533392e-10
Rbbr45 netL45 0 5021681.879079144
Cbr45 netL45 0 1.3712557522166272e-23

* Branch 46
Rabr46 node_1 netRa46 40687.53998263368
Lbr46 netRa46 netL46 4.2245261371337475e-11
Rbbr46 netL46 0 -162762.45328981182
Cbr46 netL46 0 6.427849564374902e-21

* Branch 47
Rabr47 node_1 netRa47 -86062.52616419266
Lbr47 netRa47 netL47 7.793133626522608e-12
Rbbr47 netL47 0 87075.17051366006
Cbr47 netL47 0 1.039249358783234e-21

* Branch 48
Rabr48 node_1 netRa48 10097.02235505686
Lbr48 netRa48 netL48 1.015768481767431e-11
Rbbr48 netL48 0 -36294.66939983797
Cbr48 netL48 0 2.7920082280677187e-20

* Branch 49
Rabr49 node_1 netRa49 4462.352313805508
Lbr49 netRa49 netL49 6.364274592902791e-12
Rbbr49 netL49 0 -19150.507528055805
Cbr49 netL49 0 7.524584058070262e-20

* Branch 50
Rabr50 node_1 netRa50 -30695.604290604755
Lbr50 netRa50 netL50 -3.752416820602612e-11
Rbbr50 netL50 0 74013.01003264282
Cbr50 netL50 0 -1.6659789025966233e-20

* Branch 51
Rabr51 node_1 netRa51 13099.239764874663
Lbr51 netRa51 netL51 -5.960564887445614e-11
Rbbr51 netL51 0 -220717.83603467504
Cbr51 netL51 0 -2.000127175124512e-20

* Branch 52
Rabr52 node_1 netRa52 -9563.793101048333
Lbr52 netRa52 netL52 -2.289255034772883e-11
Rbbr52 netL52 0 201496.89317556572
Cbr52 netL52 0 -1.207344501113908e-20

* Branch 53
Rabr53 node_1 netRa53 -26208.68330530019
Lbr53 netRa53 netL53 5.75145091014699e-12
Rbbr53 netL53 0 29028.90010589279
Cbr53 netL53 0 7.549675380200931e-21

* Branch 54
Rabr54 node_1 netRa54 -519.7468153625402
Lbr54 netRa54 netL54 9.13600049629304e-13
Rbbr54 netL54 0 4006.1047757972715
Cbr54 netL54 0 4.342717428655622e-19

* Branch 55
Rabr55 node_1 netRa55 104054.50185107134
Lbr55 netRa55 netL55 -1.5169209193757413e-11
Rbbr55 netL55 0 -105518.15545719078
Cbr55 netL55 0 -1.3804473541035114e-21

* Branch 56
Rabr56 node_1 netRa56 1025453.4144835678
Lbr56 netRa56 netL56 -1.5839012941502477e-10
Rbbr56 netL56 0 -1040851.3121584095
Cbr56 netL56 0 -1.4827727518435457e-22

* Branch 57
Rabr57 node_1 netRa57 249125.43563050422
Lbr57 netRa57 netL57 -1.3432643065755519e-11
Rbbr57 netL57 0 -250183.91590869977
Cbr57 netL57 0 -2.1545893297734194e-22

* Branch 58
Rabr58 node_1 netRa58 -4358.08111996593
Lbr58 netRa58 netL58 -1.8701891434013303e-12
Rbbr58 netL58 0 5779.88462707153
Cbr58 netL58 0 -7.438865226864517e-20

* Branch 59
Rabr59 node_1 netRa59 -46186.56991642629
Lbr59 netRa59 netL59 -8.050686317273029e-11
Rbbr59 netL59 0 161020.6423297105
Cbr59 netL59 0 -1.090913563812569e-20

* Branch 60
Rabr60 node_1 netRa60 508.49329604688234
Lbr60 netRa60 netL60 1.2209240634185161e-12
Rbbr60 netL60 0 -5767.151314452565
Cbr60 netL60 0 4.2078745061771866e-19

* Branch 61
Rabr61 node_1 netRa61 19498.578395087752
Lbr61 netRa61 netL61 -9.0122006959613e-12
Rbbr61 netL61 0 -26477.410069682723
Cbr61 netL61 0 -1.7424406270138235e-20

* Branch 62
Rabr62 node_1 netRa62 5080.976830569915
Lbr62 netRa62 netL62 -3.161961007087831e-12
Rbbr62 netL62 0 -8045.406896197097
Cbr62 netL62 0 -7.717133338717635e-20

* Branch 63
Rabr63 node_1 netRa63 -139176.82731994192
Lbr63 netRa63 netL63 8.545179405344329e-11
Rbbr63 netL63 0 192548.7900552267
Cbr63 netL63 0 3.181439957556378e-21

* Branch 64
Rabr64 node_1 netRa64 172969.50012324023
Lbr64 netRa64 netL64 -2.7357300399175316e-11
Rbbr64 netL64 0 -179701.63167516343
Cbr64 netL64 0 -8.796410105646842e-22

* Branch 65
Rabr65 node_1 netRa65 47047.2533034151
Lbr65 netRa65 netL65 1.9969677071010287e-11
Rbbr65 netL65 0 -73259.24322504157
Cbr65 netL65 0 5.801787107348278e-21

* Branch 66
Rabr66 node_1 netRa66 7633.942056390867
Lbr66 netRa66 netL66 -8.309764271372639e-12
Rbbr66 netL66 0 -26015.084235700273
Cbr66 netL66 0 -4.1698014511422774e-20

* Branch 67
Rabr67 node_1 netRa67 11915.921797703313
Lbr67 netRa67 netL67 1.5900372056291107e-11
Rbbr67 netL67 0 -76954.82581150424
Cbr67 netL67 0 1.7406804588447172e-20

* Branch 68
Rabr68 node_1 netRa68 -554.2008165478196
Lbr68 netRa68 netL68 4.120456124380249e-13
Rbbr68 netL68 0 1119.2211553430784
Cbr68 netL68 0 6.6311036466600515e-19

* Branch 69
Rabr69 node_1 netRa69 -808808.5539048009
Lbr69 netRa69 netL69 1.3056062943175e-10
Rbbr69 netL69 0 829806.4526740481
Cbr69 netL69 0 1.9447919685321775e-22

* Branch 70
Rabr70 node_1 netRa70 -315126.6832452109
Lbr70 netRa70 netL70 7.298839771758624e-11
Rbbr70 netL70 0 331333.47932486737
Cbr70 netL70 0 6.988002301398163e-22

* Branch 71
Rabr71 node_1 netRa71 -3355308.6205214257
Lbr71 netRa71 netL71 3.2880261220575903e-10
Rbbr71 netL71 0 3432178.579370603
Cbr71 netL71 0 2.8547744199075606e-23

* Branch 72
Rabr72 node_1 netRa72 194044.4712411718
Lbr72 netRa72 netL72 2.336392419902636e-11
Rbbr72 netL72 0 -199720.41047103461
Cbr72 netL72 0 6.029679210039228e-22

* Branch 73
Rabr73 node_1 netRa73 1856575.3398323418
Lbr73 netRa73 netL73 6.357399568792132e-11
Rbbr73 netL73 0 -1860186.9722133758
Cbr73 netL73 0 1.840892979364147e-23

* Branch 74
Rabr74 node_1 netRa74 -30665.497195858687
Lbr74 netRa74 netL74 -2.435111001040111e-11
Rbbr74 netL74 0 71491.86530429452
Cbr74 netL74 0 -1.1117188696794369e-20

* Branch 75
Rabr75 node_1 netRa75 -709718.713543705
Lbr75 netRa75 netL75 2.340395931782244e-10
Rbbr75 netL75 0 927887.1626070355
Cbr75 netL75 0 3.5526387832114097e-22

* Branch 76
Rabr76 node_1 netRa76 -249496.22887796094
Lbr76 netRa76 netL76 2.944092887617253e-11
Rbbr76 netL76 0 256268.4719458382
Cbr76 netL76 0 4.60402625340158e-22

* Branch 77
Rabr77 node_1 netRa77 755566.7155096444
Lbr77 netRa77 netL77 1.0912483350169404e-10
Rbbr77 netL77 0 -805087.2656818511
Cbr77 netL77 0 1.7941544133160316e-22

* Branch 78
Rabr78 node_1 netRa78 -506616.3096089396
Lbr78 netRa78 netL78 1.0950345017513824e-10
Rbbr78 netL78 0 584671.9284293827
Cbr78 netL78 0 3.6965630231137423e-22

* Branch 79
Rabr79 node_1 netRa79 -1727996.5833456728
Lbr79 netRa79 netL79 -1.7344144683356414e-10
Rbbr79 netL79 0 1764092.3064221907
Cbr79 netL79 0 -5.689751799954739e-23

* Branch 80
Rabr80 node_1 netRa80 -1456222.342318971
Lbr80 netRa80 netL80 1.1000267526506245e-10
Rbbr80 netL80 0 1464382.704995948
Cbr80 netL80 0 5.1583050944169144e-23

* Branch 81
Rabr81 node_1 netRa81 -650708.7476811704
Lbr81 netRa81 netL81 -3.156635548940639e-10
Rbbr81 netL81 0 1030727.8359938057
Cbr81 netL81 0 -4.70754767161785e-22

* Branch 82
Rabr82 node_1 netRa82 -5703622.999366024
Lbr82 netRa82 netL82 4.2392590605378675e-10
Rbbr82 netL82 0 5809159.837460132
Cbr82 netL82 0 1.2794090185840703e-23

* Branch 83
Rabr83 node_1 netRa83 -62389.895902451266
Lbr83 netRa83 netL83 1.046715822826544e-11
Rbbr83 netL83 0 65751.53200429189
Cbr83 netL83 0 2.551125792220248e-21

* Branch 84
Rabr84 node_1 netRa84 9161292.419616172
Lbr84 netRa84 netL84 2.922225815546937e-10
Rbbr84 netL84 0 -9176513.963197125
Cbr84 netL84 0 3.476114611214238e-24

* Branch 85
Rabr85 node_1 netRa85 155138.13106895424
Lbr85 netRa85 netL85 5.248906964254463e-11
Rbbr85 netL85 0 -175380.92700151843
Cbr85 netL85 0 1.9298636688386054e-21

* Branch 86
Rabr86 node_1 netRa86 28125.445668318494
Lbr86 netRa86 netL86 3.3357021622096134e-11
Rbbr86 netL86 0 -74176.1242031911
Cbr86 netL86 0 1.601104349780412e-20

* Branch 87
Rabr87 node_1 netRa87 16290.408297728574
Lbr87 netRa87 netL87 -5.044772708093345e-12
Rbbr87 netL87 0 -18623.051761304392
Cbr87 netL87 0 -1.6622633042718454e-20

* Branch 88
Rabr88 node_1 netRa88 -96.28949684316906
Lbr88 netRa88 netL88 7.497844843471296e-13
Rbbr88 netL88 0 8410.131689461441
Cbr88 netL88 0 9.132891805571583e-19

* Branch 89
Rabr89 node_1 netRa89 -4316.729613995331
Lbr89 netRa89 netL89 1.5678422028081604e-12
Rbbr89 netL89 0 5385.148490622405
Cbr89 netL89 0 6.739997159923441e-20

* Branch 90
Rabr90 node_1 netRa90 -3276.1387568621503
Lbr90 netRa90 netL90 -1.2233334877319817e-12
Rbbr90 netL90 0 4291.4048286437355
Cbr90 netL90 0 -8.710967080566212e-20

* Branch 91
Rabr91 node_1 netRa91 631.1835216203341
Lbr91 netRa91 netL91 6.742937609841051e-12
Rbbr91 netL91 0 -49975.53728693269
Cbr91 netL91 0 2.239408392445894e-19

* Branch 92
Rabr92 node_1 netRa92 -787682.5280986882
Lbr92 netRa92 netL92 -6.809525529519165e-11
Rbbr92 netL92 0 808197.5539229708
Cbr92 netL92 0 -1.07007902326874e-22

* Branch 93
Rabr93 node_1 netRa93 4288.200369765463
Lbr93 netRa93 netL93 -1.0537837750345305e-12
Rbbr93 netL93 0 -4857.760597839043
Cbr93 netL93 0 -5.051415287384464e-20

* Branch 94
Rabr94 node_1 netRa94 27967.486972860548
Lbr94 netRa94 netL94 2.5112759746778777e-11
Rbbr94 netL94 0 -58381.82277856726
Cbr94 netL94 0 1.5490645166364416e-20

* Branch 95
Rabr95 node_1 netRa95 -159.33136879903728
Lbr95 netRa95 netL95 -1.2477939494903299e-13
Rbbr95 netL95 0 455.08006554181304
Cbr95 netL95 0 -1.7439219914848887e-18

* Branch 96
Rabr96 node_1 netRa96 -390.76686856922055
Lbr96 netRa96 netL96 -9.35253653963157e-14
Rbbr96 netL96 0 451.1154466894343
Cbr96 netL96 0 -5.339963896430529e-19

* Branch 97
Rabr97 node_1 netRa97 -54.04649690938559
Lbr97 netRa97 netL97 -4.529626733916044e-14
Rbbr97 netL97 0 74.97220531363128
Cbr97 netL97 0 -1.1501268143780912e-17

* Branch 98
Rabr98 node_1 netRa98 10.597947989483272
Lbr98 netRa98 netL98 2.397205493491878e-14
Rbbr98 netL98 0 -84.55077472290148
Cbr98 netL98 0 2.912107291109014e-17

* Branch 99
Rabr99 node_1 netRa99 1.8132336167536371
Lbr99 netRa99 netL99 7.800492658965758e-15
Rbbr99 netL99 0 -27.9662549737644
Cbr99 netL99 0 2.603765122739878e-16

.ends


* Y'12
.subckt yp12 node_1 node_2
* Branch 0
Rabr0 node_1 netRa0 544.2747355865685
Lbr0 netRa0 netL0 -8.701265092418646e-14
Rbbr0 netL0 node_2 -554.2316865416359
Cbr0 netL0 node_2 -2.8370565128549e-19

* Branch 1
Rabr1 node_1 netRa1 247.71725758326335
Lbr1 netRa1 netL1 5.236409739129229e-14
Rbbr1 netL1 node_2 -255.9319051541789
Cbr1 netL1 node_2 8.435678798840945e-19

* Branch 2
Rabr2 node_1 netRa2 27.435764484710173
Lbr2 netRa2 netL2 1.835693723445052e-14
Rbbr2 netL2 node_2 -36.99380749582263
Cbr2 netL2 node_2 1.930118464256721e-17

* Branch 3
Rabr3 node_1 netRa3 2.8640901639134446
Lbr3 netRa3 netL3 7.358294704315974e-15
Rbbr3 netL3 node_2 -20.391915081481173
Cbr3 netL3 node_2 1.5937878924985526e-16

* Branch 4
Rabr4 node_1 netRa4 4.84947216805926
Lbr4 netRa4 netL4 1.6763656910793183e-14
Rbbr4 netL4 node_2 -44.24729781266852
Cbr4 netL4 node_2 1.0223203076193158e-16

* Branch 5
Rabr5 node_1 netRa5 -118.67460001784872
Lbr5 netRa5 netL5 2.1863738868954913e-13
Rbbr5 netL5 node_2 271.90932966994006
Cbr5 netL5 node_2 6.1970912200346486e-18

* Branch 6
Rabr6 node_1 netRa6 31.995405253969842
Lbr6 netRa6 netL6 -3.687504326394836e-14
Rbbr6 netL6 node_2 -149.4145023416816
Cbr6 netL6 node_2 -7.304534158486406e-18

* Branch 7
Rabr7 node_1 netRa7 -0.35912977563210446
Lbr7 netRa7 netL7 -3.881131557006913e-15
Rbbr7 netL7 node_2 50.745730339489754
Cbr7 netL7 node_2 -3.3540272680647357e-16

* Branch 8
Rabr8 node_1 netRa8 72.46483669699478
Lbr8 netRa8 netL8 -3.053544013606199e-14
Rbbr8 netL8 node_2 -106.61018310176883
Cbr8 netL8 node_2 -3.899890325573887e-18

* Branch 9
Rabr9 node_1 netRa9 1448.4212660393985
Lbr9 netRa9 netL9 -2.7145359033868748e-12
Rbbr9 netL9 node_2 -17750.840345173143
Cbr9 netL9 node_2 -9.971703929438388e-20

* Branch 10
Rabr10 node_1 netRa10 15.346845120798536
Lbr10 netRa10 netL10 1.4931289736919934e-14
Rbbr10 netL10 node_2 -48.520976403560304
Cbr10 netL10 node_2 2.0631243840020292e-17

* Branch 11
Rabr11 node_1 netRa11 119.02190648147024
Lbr11 netRa11 netL11 4.4134180240305676e-14
Rbbr11 netL11 node_2 -158.99156234464172
Cbr11 netL11 node_2 2.3559052421532287e-18

* Branch 12
Rabr12 node_1 netRa12 -5692.925507374005
Lbr12 netRa12 netL12 5.5368721311029265e-12
Rbbr12 netL12 node_2 22945.498547951847
Cbr12 netL12 node_2 4.1331816254992024e-20

* Branch 13
Rabr13 node_1 netRa13 4.733234144530969
Lbr13 netRa13 netL13 8.03896500664284e-15
Rbbr13 netL13 node_2 -35.05527411997518
Cbr13 netL13 node_2 5.0675349755716905e-17

* Branch 14
Rabr14 node_1 netRa14 15.139095974418654
Lbr14 netRa14 netL14 -1.8131928636766412e-14
Rbbr14 netL14 node_2 -69.14400327011134
Cbr14 netL14 node_2 -1.6812286022896532e-17

* Branch 15
Rabr15 node_1 netRa15 9.440973437798275
Lbr15 netRa15 netL15 -5.0313634660852596e-14
Rbbr15 netL15 node_2 -720.6231640954699
Cbr15 netL15 node_2 -6.53540432357486e-18

* Branch 16
Rabr16 node_1 netRa16 -87.04326910357553
Lbr16 netRa16 netL16 4.863339470880984e-14
Rbbr16 netL16 node_2 167.8634037787314
Cbr16 netL16 node_2 3.283643695909525e-18

* Branch 17
Rabr17 node_1 netRa17 690.4219307316184
Lbr17 netRa17 netL17 1.4769526633854164e-13
Rbbr17 netL17 node_2 -785.9209495383784
Cbr17 netL17 node_2 2.7360842402155546e-19

* Branch 18
Rabr18 node_1 netRa18 -14.141870020079129
Lbr18 netRa18 netL18 2.0026598618067633e-14
Rbbr18 netL18 node_2 64.62649100224819
Cbr18 netL18 node_2 2.1191528991564676e-17

* Branch 19
Rabr19 node_1 netRa19 23.00697087833893
Lbr19 netRa19 netL19 1.5992440344197206e-14
Rbbr19 netL19 node_2 -51.63328261952103
Cbr19 netL19 node_2 1.3689402979825092e-17

* Branch 20
Rabr20 node_1 netRa20 482.6218718940859
Lbr20 netRa20 netL20 7.328057198085248e-14
Rbbr20 netL20 node_2 -507.86743994242295
Cbr20 netL20 node_2 3.0003946921387533e-19

* Branch 21
Rabr21 node_1 netRa21 131.54212710227353
Lbr21 netRa21 netL21 -6.640341669689147e-14
Rbbr21 netL21 node_2 -168.28330390231127
Cbr21 netL21 node_2 -2.965963932032328e-18

* Branch 22
Rabr22 node_1 netRa22 -13.9209690201864
Lbr22 netRa22 netL22 -4.236581471368121e-14
Rbbr22 netL22 node_2 138.8544550158743
Cbr22 netL22 node_2 -2.352439755950887e-17

* Branch 23
Rabr23 node_1 netRa23 38.9257407566365
Lbr23 netRa23 netL23 2.949077447346402e-14
Rbbr23 netL23 node_2 -88.21748245486634
Cbr23 netL23 node_2 8.7337600927417e-18

* Branch 24
Rabr24 node_1 netRa24 -15.22384403162685
Lbr24 netRa24 netL24 1.610260144821364e-14
Rbbr24 netL24 node_2 39.59318713661025
Cbr24 netL24 node_2 2.611640098470667e-17

* Branch 25
Rabr25 node_1 netRa25 37.02959700159177
Lbr25 netRa25 netL25 5.1657080287580656e-14
Rbbr25 netL25 node_2 -263.15598248599196
Cbr25 netL25 node_2 5.465433991529576e-18

* Branch 26
Rabr26 node_1 netRa26 -15.095349362505068
Lbr26 netRa26 netL26 1.1106097876672225e-14
Rbbr26 netL26 node_2 26.566811265433554
Cbr26 netL26 node_2 2.7262529255043945e-17

* Branch 27
Rabr27 node_1 netRa27 -8.807322293046004
Lbr27 netRa27 netL27 -2.6592483334879514e-14
Rbbr27 netL27 node_2 79.438547796933
Cbr27 netL27 node_2 -4.0623513179189805e-17

* Branch 28
Rabr28 node_1 netRa28 -442.2346616084297
Lbr28 netRa28 netL28 4.444038435449675e-13
Rbbr28 netL28 node_2 1801.3268667525606
Cbr28 netL28 node_2 5.465552679018862e-19

* Branch 29
Rabr29 node_1 netRa29 -12.24895931951207
Lbr29 netRa29 netL29 1.8822807193570182e-14
Rbbr29 netL29 node_2 65.83546232211303
Cbr29 netL29 node_2 2.2625658931839048e-17

* Branch 30
Rabr30 node_1 netRa30 92.27996128844991
Lbr30 netRa30 netL30 -7.243979472683415e-14
Rbbr30 netL30 node_2 -152.39619867994486
Cbr30 netL30 node_2 -5.069466339861556e-18

* Branch 31
Rabr31 node_1 netRa31 496.7940070272497
Lbr31 netRa31 netL31 7.837904743562032e-14
Rbbr31 netL31 node_2 -511.0702672331564
Cbr31 netL31 node_2 3.097031670981125e-19

* Branch 32
Rabr32 node_1 netRa32 -2.2124162636849456
Lbr32 netRa32 netL32 2.1861635352274313e-14
Rbbr32 netL32 node_2 353.03644110957066
Cbr32 netL32 node_2 2.3314959456817258e-17

* Branch 33
Rabr33 node_1 netRa33 -1.8093467796113571
Lbr33 netRa33 netL33 2.5641471234862466e-14
Rbbr33 netL33 node_2 568.1722853642924
Cbr33 netL33 node_2 1.9518217932950883e-17

* Branch 34
Rabr34 node_1 netRa34 227.36906984113995
Lbr34 netRa34 netL34 -1.2340958091584487e-13
Rbbr34 netL34 node_2 -296.6725305942684
Cbr34 netL34 node_2 -1.810796595486539e-18

* Branch 35
Rabr35 node_1 netRa35 2.8779872501142187
Lbr35 netRa35 netL35 -6.294702145749612e-14
Rbbr35 netL35 node_2 -690.6186996745571
Cbr35 netL35 node_2 -2.2420238182740325e-17

* Branch 36
Rabr36 node_1 netRa36 -44.50841623446919
Lbr36 netRa36 netL36 -5.087312499486561e-14
Rbbr36 netL36 node_2 94.77790590001074
Cbr36 netL36 node_2 -1.2320239405986887e-17

* Branch 37
Rabr37 node_1 netRa37 -53.35359511878492
Lbr37 netRa37 netL37 1.54953759332125e-14
Rbbr37 netL37 node_2 59.58543467630422
Cbr37 netL37 node_2 4.84867181802339e-18

* Branch 38
Rabr38 node_1 netRa38 -43.66558810106286
Lbr38 netRa38 netL38 -6.822381077310312e-14
Rbbr38 netL38 node_2 139.33815661421852
Cbr38 netL38 node_2 -1.1531326816320797e-17

* Branch 39
Rabr39 node_1 netRa39 534.5133762568618
Lbr39 netRa39 netL39 -1.596107108259127e-13
Rbbr39 netL39 node_2 -650.7367975964903
Cbr39 netL39 node_2 -4.5648634184798925e-19

* Branch 40
Rabr40 node_1 netRa40 -42.56622850500029
Lbr40 netRa40 netL40 -7.715454563156544e-14
Rbbr40 netL40 node_2 176.88838354677623
Cbr40 netL40 node_2 -1.0577279879746422e-17

* Branch 41
Rabr41 node_1 netRa41 208.7057909027028
Lbr41 netRa41 netL41 -1.616885226551015e-13
Rbbr41 netL41 node_2 -555.0622620191373
Cbr41 netL41 node_2 -1.3776503486147657e-18

* Branch 42
Rabr42 node_1 netRa42 -31.139164724026408
Lbr42 netRa42 netL42 3.8380556724475155e-14
Rbbr42 netL42 node_2 114.6326259847662
Cbr42 netL42 node_2 1.0538878280551095e-17

* Branch 43
Rabr43 node_1 netRa43 972.0256125473829
Lbr43 netRa43 netL43 -2.6913584350762843e-13
Rbbr43 netL43 node_2 -1166.6322358957393
Cbr43 netL43 node_2 -2.362658096264292e-19

* Branch 44
Rabr44 node_1 netRa44 366.3054732537187
Lbr44 netRa44 netL44 1.3803720148578895e-13
Rbbr44 netL44 node_2 -490.2980999733956
Cbr44 netL44 node_2 7.732347183289479e-19

* Branch 45
Rabr45 node_1 netRa45 -514.4326453127089
Lbr45 netRa45 netL45 -1.440696841101754e-13
Rbbr45 netL45 node_2 546.4904729284866
Cbr45 netL45 node_2 -5.146809509421912e-19

* Branch 46
Rabr46 node_1 netRa46 -14.038084677035263
Lbr46 netRa46 netL46 2.969994852138887e-14
Rbbr46 netL46 node_2 121.33923098325607
Cbr46 netL46 node_2 1.689302592212043e-17

* Branch 47
Rabr47 node_1 netRa47 97.96690785388404
Lbr47 netRa47 netL47 -1.2944958506079387e-13
Rbbr47 netL47 node_2 -267.8302104717362
Cbr47 netL47 node_2 -4.8373343186819316e-18

* Branch 48
Rabr48 node_1 netRa48 -114.88291561682696
Lbr48 netRa48 netL48 -3.372505178620811e-14
Rbbr48 netL48 node_2 129.98069278807668
Cbr48 netL48 node_2 -2.2684570490744007e-18

* Branch 49
Rabr49 node_1 netRa49 45087.6230732605
Lbr49 netRa49 netL49 -1.2199041365867012e-12
Rbbr49 netL49 node_2 -45164.241405865025
Cbr49 netL49 node_2 -5.988264494028296e-22

* Branch 50
Rabr50 node_1 netRa50 -97.69175544799582
Lbr50 netRa50 netL50 3.762450671614743e-14
Rbbr50 netL50 node_2 127.9698559500849
Cbr50 netL50 node_2 2.992800159566525e-18

* Branch 51
Rabr51 node_1 netRa51 -6.963791194525757
Lbr51 netRa51 netL51 1.930913657562485e-14
Rbbr51 netL51 node_2 95.75105497876092
Cbr51 netL51 node_2 2.783594523941074e-17

* Branch 52
Rabr52 node_1 netRa52 -411.57225963736283
Lbr52 netRa52 netL52 -1.8142835088017093e-13
Rbbr52 netL52 node_2 631.4665216346903
Cbr52 netL52 node_2 -7.025082023905467e-19

* Branch 53
Rabr53 node_1 netRa53 45.30670086731523
Lbr53 netRa53 netL53 -1.5070751417628264e-14
Rbbr53 netL53 node_2 -51.20122897222568
Cbr53 netL53 node_2 -6.466447858948732e-18

* Branch 54
Rabr54 node_1 netRa54 139.7916946174484
Lbr54 netRa54 netL54 -9.918906737989136e-14
Rbbr54 netL54 node_2 -190.96116823956584
Cbr54 netL54 node_2 -3.680895145932324e-18

* Branch 55
Rabr55 node_1 netRa55 -14.790091218430142
Lbr55 netRa55 netL55 1.8212696032979103e-14
Rbbr55 netL55 node_2 49.99674781441448
Cbr55 netL55 node_2 2.424572573945413e-17

* Branch 56
Rabr56 node_1 netRa56 -58.47210057605751
Lbr56 netRa56 netL56 3.5538633155864563e-14
Rbbr56 netL56 node_2 94.8850951027309
Cbr56 netL56 node_2 6.359581319607705e-18

* Branch 57
Rabr57 node_1 netRa57 4.349254440937208
Lbr57 netRa57 netL57 3.773345325140597e-14
Rbbr57 netL57 node_2 -279.91471266071244
Cbr57 netL57 node_2 3.4230021954290616e-17

* Branch 58
Rabr58 node_1 netRa58 -453.5128007978976
Lbr58 netRa58 netL58 1.5963940583251923e-13
Rbbr58 netL58 node_2 558.9694594997593
Cbr58 netL58 node_2 6.273924477921659e-19

* Branch 59
Rabr59 node_1 netRa59 -54.33872883475126
Lbr59 netRa59 netL59 -1.4818936932999572e-13
Rbbr59 netL59 node_2 452.7872394437128
Cbr59 netL59 node_2 -6.200636903987392e-18

* Branch 60
Rabr60 node_1 netRa60 -38.15562318748906
Lbr60 netRa60 netL60 2.5672187311127887e-14
Rbbr60 netL60 node_2 64.9763765023042
Cbr60 netL60 node_2 1.0282345993578783e-17

* Branch 61
Rabr61 node_1 netRa61 -45.19300297565159
Lbr61 netRa61 netL61 3.849396961644289e-14
Rbbr61 netL61 node_2 99.26755094190341
Cbr61 netL61 node_2 8.506333822633481e-18

* Branch 62
Rabr62 node_1 netRa62 -65.68657997507462
Lbr62 netRa62 netL62 7.19671316651569e-14
Rbbr62 netL62 node_2 224.35976706681774
Cbr62 netL62 node_2 4.829734162715021e-18

* Branch 63
Rabr63 node_1 netRa63 -22.169052555559645
Lbr63 netRa63 netL63 3.068947256149049e-14
Rbbr63 netL63 node_2 90.4266921435529
Cbr63 netL63 node_2 1.509917025556904e-17

* Branch 64
Rabr64 node_1 netRa64 -422.5566653962434
Lbr64 netRa64 netL64 -5.111561844254497e-14
Rbbr64 netL64 node_2 431.01030671835116
Cbr64 netL64 node_2 -2.8099540405790323e-19

* Branch 65
Rabr65 node_1 netRa65 -4.7971922334978405
Lbr65 netRa65 netL65 -1.7373004487759917e-13
Rbbr65 netL65 node_2 9330.119055707828
Cbr65 netL65 node_2 -5.851161646431647e-18

* Branch 66
Rabr66 node_1 netRa66 53134.2403153723
Lbr66 netRa66 netL66 5.862988289326852e-12
Rbbr66 netL66 node_2 -53515.70792425156
Cbr66 netL66 node_2 2.063903663557443e-21

* Branch 67
Rabr67 node_1 netRa67 -258.26302077068414
Lbr67 netRa67 netL67 -1.7045923197017088e-13
Rbbr67 netL67 node_2 544.0509009029315
Cbr67 netL67 node_2 -1.2198567536654785e-18

* Branch 68
Rabr68 node_1 netRa68 427.3081960514305
Lbr68 netRa68 netL68 2.213674727998157e-12
Rbbr68 netL68 node_2 -39068.81494749189
Cbr68 netL68 node_2 1.3825118757765606e-19

* Branch 69
Rabr69 node_1 netRa69 -145.3933924238648
Lbr69 netRa69 netL69 9.32621049058489e-14
Rbbr69 netL69 node_2 268.603146649234
Cbr69 netL69 node_2 2.377116771568041e-18

* Branch 70
Rabr70 node_1 netRa70 -1528.3116542942662
Lbr70 netRa70 netL70 -1.2126910209475222e-12