* netlist generated with vector fitting poles and residues

.subckt total_network node_1 node_2 node_3 node_4 
X_11 node_1 0 yp11
X_12 node_1 node_2 yp12
X_13 node_1 node_3 yp13
X_14 node_1 node_4 yp14
X_22 node_2 0 yp22
X_23 node_2 node_3 yp23
X_24 node_2 node_4 yp24
X_33 node_3 0 yp33
X_34 node_3 node_4 yp34
X_44 node_4 0 yp44
.ends


* Y'11
.subckt yp11 node_1 0
* Branch 0
Rabr0 node_1 netRa0 -17434.741458216307
Lbr0 netRa0 netL0 6.740526373739723e-12
Rbbr0 netL0 0 26099.074994125083
Cbr0 netL0 0 1.4549417833506357e-20

* Branch 1
Rabr1 node_1 netRa1 -13712.658527192589
Lbr1 netRa1 netL1 9.591609417966727e-12
Rbbr1 netL1 0 35754.999325864905
Cbr1 netL1 0 1.894519395738335e-20

* Branch 2
Rabr2 node_1 netRa2 144478.16548934887
Lbr2 netRa2 netL2 -2.6722466757353968e-11
Rbbr2 netL2 0 -161146.41183553886
Cbr2 netL2 0 -1.1386218842461405e-21

* Branch 3
Rabr3 node_1 netRa3 8459.185580103274
Lbr3 netRa3 netL3 2.769773287591538e-12
Rbbr3 netL3 0 -11500.42843078262
Cbr3 netL3 0 2.8744330481230347e-20

* Branch 4
Rabr4 node_1 netRa4 58245.77380389142
Lbr4 netRa4 netL4 -3.646357747642789e-11
Rbbr4 netL4 0 -137266.79288243866
Cbr4 netL4 0 -4.490896676445637e-21

* Branch 5
Rabr5 node_1 netRa5 -30655.805703995622
Lbr5 netRa5 netL5 8.873371956305642e-12
Rbbr5 netL5 0 36510.36364210955
Cbr5 netL5 0 7.879355975893072e-21

* Branch 6
Rabr6 node_1 netRa6 -6064.66989393974
Lbr6 netRa6 netL6 6.533446455634442e-12
Rbbr6 netL6 0 19758.641610002323
Cbr6 netL6 0 5.344360400523019e-20

* Branch 7
Rabr7 node_1 netRa7 -11816.268582430588
Lbr7 netRa7 netL7 8.14846499252976e-12
Rbbr7 netL7 0 21433.998439934057
Cbr7 netL7 0 3.1797068402292764e-20

* Branch 8
Rabr8 node_1 netRa8 -23919.82722802769
Lbr8 netRa8 netL8 -1.0150429402726049e-11
Rbbr8 netL8 0 35136.22845276498
Cbr8 netL8 0 -1.216349531338044e-20

* Branch 9
Rabr9 node_1 netRa9 -3205.3186805798073
Lbr9 netRa9 netL9 3.461217409150293e-12
Rbbr9 netL9 0 12953.239912678846
Cbr9 netL9 0 8.190438999478165e-20

* Branch 10
Rabr10 node_1 netRa10 -8025.806705638787
Lbr10 netRa10 netL10 7.988146692544696e-12
Rbbr10 netL10 0 20763.915611366658
Cbr10 netL10 0 4.7165741489186385e-20

* Branch 11
Rabr11 node_1 netRa11 -2428.7784979727626
Lbr11 netRa11 netL11 1.0411366253988582e-11
Rbbr11 netL11 0 51465.60484167352
Cbr11 netL11 0 7.800027492518306e-20

* Branch 12
Rabr12 node_1 netRa12 -64912.90918024948
Lbr12 netRa12 netL12 1.1454909885363925e-11
Rbbr12 netL12 0 70441.81933975346
Cbr12 netL12 0 2.4987869048247227e-21

* Branch 13
Rabr13 node_1 netRa13 107768.13400103145
Lbr13 netRa13 netL13 -4.8916188814723144e-11
Rbbr13 netL13 0 -150073.56390383153
Cbr13 netL13 0 -3.005132874499613e-21

* Branch 14
Rabr14 node_1 netRa14 1494.329860686832
Lbr14 netRa14 netL14 4.160305548389031e-12
Rbbr14 netL14 0 -36081.01434058917
Cbr14 netL14 0 8.034135974950943e-20

* Branch 15
Rabr15 node_1 netRa15 4292.839848094218
Lbr15 netRa15 netL15 -2.5882284250446662e-11
Rbbr15 netL15 0 -167030.33906295954
Cbr15 netL15 0 -3.336296276770568e-20

* Branch 16
Rabr16 node_1 netRa16 -7151.047274606847
Lbr16 netRa16 netL16 -3.3315816896717247e-12
Rbbr16 netL16 0 12181.508133887708
Cbr16 netL16 0 -3.8481454584985896e-20

* Branch 17
Rabr17 node_1 netRa17 -3115.2557725847882
Lbr17 netRa17 netL17 9.958059318132057e-12
Rbbr17 netL17 0 24589.10573980973
Cbr17 netL17 0 1.2478941040161827e-19

* Branch 18
Rabr18 node_1 netRa18 -7321.957269672947
Lbr18 netRa18 netL18 1.073981090872363e-11
Rbbr18 netL18 0 18955.03692131008
Cbr18 netL18 0 7.597448818752743e-20

* Branch 19
Rabr19 node_1 netRa19 -26561.749292795197
Lbr19 netRa19 netL19 1.0303856419627129e-11
Rbbr19 netL19 0 33875.93572525164
Cbr19 netL19 0 1.1397067764686126e-20

* Branch 20
Rabr20 node_1 netRa20 -2909.7167501678955
Lbr20 netRa20 netL20 1.1413144342668333e-11
Rbbr20 netL20 0 42723.773185624996
Cbr20 netL20 0 8.761369663156509e-20

* Branch 21
Rabr21 node_1 netRa21 -662910.2667570976
Lbr21 netRa21 netL21 -3.883175858395346e-11
Rbbr21 netL21 0 668446.8204335788
Cbr21 netL21 0 -8.76951027662842e-23

* Branch 22
Rabr22 node_1 netRa22 6757.307923396253
Lbr22 netRa22 netL22 2.929793441330839e-11
Rbbr22 netL22 0 -120343.87040894774
Cbr22 netL22 0 3.798460875021512e-20

* Branch 23
Rabr23 node_1 netRa23 -9741.997295187613
Lbr23 netRa23 netL23 6.377520699852608e-12
Rbbr23 netL23 0 18370.625444613477
Cbr23 netL23 0 3.536806357454579e-20

* Branch 24
Rabr24 node_1 netRa24 -5025.069348076812
Lbr24 netRa24 netL24 1.2573637012275823e-11
Rbbr24 netL24 0 22088.996242199228
Cbr24 netL24 0 1.1012853653507068e-19

* Branch 25
Rabr25 node_1 netRa25 -8968.615439263032
Lbr25 netRa25 netL25 9.097178175383637e-12
Rbbr25 netL25 0 21961.69985581605
Cbr25 netL25 0 4.5667238972552355e-20

* Branch 26
Rabr26 node_1 netRa26 6903.840246992069
Lbr26 netRa26 netL26 1.2280473393079975e-11
Rbbr26 netL26 0 -62725.7256101052
Cbr26 netL26 0 2.892010637077594e-20

* Branch 27
Rabr27 node_1 netRa27 -11992.441501298865
Lbr27 netRa27 netL27 9.406136025925023e-12
Rbbr27 netL27 0 23157.64423570252
Cbr27 netL27 0 3.358257856640988e-20

* Branch 28
Rabr28 node_1 netRa28 -7497.355604160065
Lbr28 netRa28 netL28 1.2333238513027663e-11
Rbbr28 netL28 0 19682.30495858405
Cbr28 netL28 0 8.214185284800042e-20

* Branch 29
Rabr29 node_1 netRa29 -25172.82463813807
Lbr29 netRa29 netL29 5.359458280322089e-12
Rbbr29 netL29 0 28731.374202973584
Cbr29 netL29 0 7.393513215274594e-21

* Branch 30
Rabr30 node_1 netRa30 3491258.879069282
Lbr30 netRa30 netL30 -1.4224403756691887e-10
Rbbr30 netL30 0 -3508443.848678373
Cbr30 netL30 0 -1.1607965194839369e-23

* Branch 31
Rabr31 node_1 netRa31 -13592.107979259337
Lbr31 netRa31 netL31 6.883402358902737e-12
Rbbr31 netL31 0 21182.929604279994
Cbr31 netL31 0 2.3789127226640474e-20

* Branch 32
Rabr32 node_1 netRa32 -142015.2550429507
Lbr32 netRa32 netL32 3.984186423675544e-11
Rbbr32 netL32 0 147406.1735769769
Cbr32 netL32 0 1.8986143039451915e-21

* Branch 33
Rabr33 node_1 netRa33 -25243.131889176675
Lbr33 netRa33 netL33 1.5000654978998585e-11
Rbbr33 netL33 0 32443.603888339858
Cbr33 netL33 0 1.8228504248035584e-20

* Branch 34
Rabr34 node_1 netRa34 -136456.34560348094
Lbr34 netRa34 netL34 -4.50491874274081e-11
Rbbr34 netL34 0 146523.07104384317
Cbr34 netL34 0 -2.258666230380894e-21

* Branch 35
Rabr35 node_1 netRa35 -4749.448609238146
Lbr35 netRa35 netL35 8.803785387239355e-12
Rbbr35 netL35 0 24727.673302002033
Cbr35 netL35 0 7.395597526004309e-20

* Branch 36
Rabr36 node_1 netRa36 70289.24254578493
Lbr36 netRa36 netL36 -6.984563279240345e-11
Rbbr36 netL36 0 -130859.39707700502
Cbr36 netL36 0 -7.539500845372043e-21

* Branch 37
Rabr37 node_1 netRa37 -26073.446901520212
Lbr37 netRa37 netL37 -6.674887314061092e-12
Rbbr37 netL37 0 31628.27107690573
Cbr37 netL37 0 -8.106938483764605e-21

* Branch 38
Rabr38 node_1 netRa38 -10105.094161469418
Lbr38 netRa38 netL38 1.0472023289747627e-11
Rbbr38 netL38 0 21507.34176402044
Cbr38 netL38 0 4.7884574711969606e-20

* Branch 39
Rabr39 node_1 netRa39 -1645.9652501767148
Lbr39 netRa39 netL39 1.2870166583199347e-11
Rbbr39 netL39 0 49955.20045567157
Cbr39 netL39 0 1.49728370249461e-19

* Branch 40
Rabr40 node_1 netRa40 -8292.491281330413
Lbr40 netRa40 netL40 8.962246367682136e-12
Rbbr40 netL40 0 21239.06319037788
Cbr40 netL40 0 5.058058576639719e-20

* Branch 41
Rabr41 node_1 netRa41 -6069.055567759307
Lbr41 netRa41 netL41 9.849672650715461e-12
Rbbr41 netL41 0 21962.17490450961
Cbr41 netL41 0 7.323759689151003e-20

* Branch 42
Rabr42 node_1 netRa42 35249.47673525623
Lbr42 netRa42 netL42 -6.566371343432593e-11
Rbbr42 netL42 0 -226778.0552024069
Cbr42 netL42 0 -8.140902182860913e-21

* Branch 43
Rabr43 node_1 netRa43 2644.15255505918
Lbr43 netRa43 netL43 1.0925789092444004e-11
Rbbr43 netL43 0 -131086.71635893194
Cbr43 netL43 0 3.2114449314130766e-20

* Branch 44
Rabr44 node_1 netRa44 121444.85688976741
Lbr44 netRa44 netL44 -4.717667711169872e-11
Rbbr44 netL44 0 -176976.51404714314
Cbr44 netL44 0 -2.1917107160755303e-21

* Branch 45
Rabr45 node_1 netRa45 -40854.88172603963
Lbr45 netRa45 netL45 -4.780461387554052e-11
Rbbr45 netL45 0 91741.53923766602
Cbr45 netL45 0 -1.2811175570650372e-20

* Branch 46
Rabr46 node_1 netRa46 99369.92590901478
Lbr46 netRa46 netL46 -8.548309783875094e-11
Rbbr46 netL46 0 -137402.60221627643
Cbr46 netL46 0 -6.241921618761561e-21

* Branch 47
Rabr47 node_1 netRa47 -4356.6866937956165
Lbr47 netRa47 netL47 1.541898849824969e-11
Rbbr47 netL47 0 137070.88269634542
Cbr47 netL47 0 2.5698385314244617e-20

* Branch 48
Rabr48 node_1 netRa48 -83437.7901513481
Lbr48 netRa48 netL48 -1.2520792127573384e-10
Rbbr48 netL48 0 171018.245005086
Cbr48 netL48 0 -8.790590249832624e-21

* Branch 49
Rabr49 node_1 netRa49 48750.62595936208
Lbr49 netRa49 netL49 1.1413096323874179e-11
Rbbr49 netL49 0 -57514.53614566278
Cbr49 netL49 0 4.0715442292177974e-21

* Branch 50
Rabr50 node_1 netRa50 93062.51477168249
Lbr50 netRa50 netL50 1.0924519922408991e-10
Rbbr50 netL50 0 -399347.7897297749
Cbr50 netL50 0 2.9426172797303265e-21

* Branch 51
Rabr51 node_1 netRa51 558656.2329197116
Lbr51 netRa51 netL51 2.944499362367485e-10
Rbbr51 netL51 0 -783386.7269039764
Cbr51 netL51 0 6.731061210721674e-22

* Branch 52
Rabr52 node_1 netRa52 3853028.3422382385
Lbr52 netRa52 netL52 1.0481586117214655e-09
Rbbr52 netL52 0 -4162215.9711390412
Cbr52 netL52 0 6.537152731404687e-23

* Branch 53
Rabr53 node_1 netRa53 1976027.3418171594
Lbr53 netRa53 netL53 -3.236387124013632e-10
Rbbr53 netL53 0 -2090953.8992189667
Cbr53 netL53 0 -7.831997889034412e-23

* Branch 54
Rabr54 node_1 netRa54 113902.08769402986
Lbr54 netRa54 netL54 1.6398102307702575e-10
Rbbr54 netL54 0 -613700.1352836814
Cbr54 netL54 0 2.3478823412673165e-21

* Branch 55
Rabr55 node_1 netRa55 -316514.0055292932
Lbr55 netRa55 netL55 1.6488135770643859e-09
Rbbr55 netL55 0 17555917.32238756
Cbr55 netL55 0 2.9607142086016014e-22

* Branch 56
Rabr56 node_1 netRa56 -701123.0411552469
Lbr56 netRa56 netL56 -4.0747277690676396e-10
Rbbr56 netL56 0 1033527.2050915719
Cbr56 netL56 0 -5.624488641081247e-22

* Branch 57
Rabr57 node_1 netRa57 360493.23103499773
Lbr57 netRa57 netL57 8.925991561981686e-10
Rbbr57 netL57 0 -4055831.751976402
Cbr57 netL57 0 6.108624092678036e-22

* Branch 58
Rabr58 node_1 netRa58 -58584.44877876263
Lbr58 netRa58 netL58 -2.6677571034901945e-10
Rbbr58 netL58 0 1564914.0208758612
Cbr58 netL58 0 -2.9124420352914626e-21

* Branch 59
Rabr59 node_1 netRa59 -496735.40908145526
Lbr59 netRa59 netL59 7.844384284362218e-10
Rbbr59 netL59 0 2080988.8130846617
Cbr59 netL59 0 7.586621079117011e-22

* Branch 60
Rabr60 node_1 netRa60 361635.8353052218
Lbr60 netRa60 netL60 -1.4887368978766695e-10
Rbbr60 netL60 0 -442629.19215849537
Cbr60 netL60 0 -9.299905432592036e-22

* Branch 61
Rabr61 node_1 netRa61 343823.3449086273
Lbr61 netRa61 netL61 -7.039892242115344e-10
Rbbr61 netL61 0 -2554891.765740957
Cbr61 netL61 0 -8.012264657305349e-22

* Branch 62
Rabr62 node_1 netRa62 -11057290.070769517
Lbr62 netRa62 netL62 9.765373236471247e-09
Rbbr62 netL62 0 25868143.228492822
Cbr62 netL62 0 3.413757318320515e-23

* Branch 63
Rabr63 node_1 netRa63 10991239.725707365
Lbr63 netRa63 netL63 -1.4867865827050134e-09
Rbbr63 netL63 0 -11122613.977216255
Cbr63 netL63 0 -1.2161639442130704e-23

* Branch 64
Rabr64 node_1 netRa64 -65529.56340756273
Lbr64 netRa64 netL64 3.7462937466409233e-10
Rbbr64 netL64 0 911047.2119898791
Cbr64 netL64 0 6.274910681728908e-21

* Branch 65
Rabr65 node_1 netRa65 6530302.988616686
Lbr65 netRa65 netL65 -1.2570728955051016e-09
Rbbr65 netL65 0 -6757828.609118191
Cbr65 netL65 0 -2.848521121818366e-23

* Branch 66
Rabr66 node_1 netRa66 6176467.375682878
Lbr66 netRa66 netL66 -1.9628484605615066e-09
Rbbr66 netL66 0 -7337608.884628612
Cbr66 netL66 0 -4.3310304274708837e-23

* Branch 67
Rabr67 node_1 netRa67 2050980.9376406032
Lbr67 netRa67 netL67 -6.368229491998284e-10
Rbbr67 netL67 0 -2258082.9464497473
Cbr67 netL67 0 -1.3750277031624237e-22

* Branch 68
Rabr68 node_1 netRa68 363724.49102872994
Lbr68 netRa68 netL68 -3.610357717708614e-10
Rbbr68 netL68 0 -713216.8850232706
Cbr68 netL68 0 -1.391651306910962e-21

* Branch 69
Rabr69 node_1 netRa69 9352800.98316589
Lbr69 netRa69 netL69 1.8975243349146844e-09
Rbbr69 netL69 0 -9741976.550359152
Cbr69 netL69 0 2.0825917752976516e-23

* Branch 70
Rabr70 node_1 netRa70 1307154.0933939072
Lbr70 netRa70 netL70 -1.4799219813545932e-09
Rbbr70 netL70 0 -2352623.2662301334
Cbr70 netL70 0 -4.811962168775766e-22

* Branch 71
Rabr71 node_1 netRa71 2433487.363308051
Lbr71 netRa71 netL71 -6.972198753491343e-10
Rbbr71 netL71 0 -2795664.8863946423
Cbr71 netL71 0 -1.0248153957845658e-22

* Branch 72
Rabr72 node_1 netRa72 1990296.8812342188
Lbr72 netRa72 netL72 -1.0954894510150051e-09
Rbbr72 netL72 0 -2333179.140358726
Cbr72 netL72 0 -2.3589626448953846e-22

* Branch 73
Rabr73 node_1 netRa73 231189.26522749427
Lbr73 netRa73 netL73 -2.505784071302378e-10
Rbbr73 netL73 0 -378433.8817590787
Cbr73 netL73 0 -2.8638020292396887e-21

* Branch 74
Rabr74 node_1 netRa74 437952.4722351675
Lbr74 netRa74 netL74 -5.06974311765743e-10
Rbbr74 netL74 0 -787734.1764999484
Cbr74 netL74 0 -1.4693619799649309e-21

* Branch 75
Rabr75 node_1 netRa75 360677.6041120563
Lbr75 netRa75 netL75 -4.3360275072589956e-10
Rbbr75 netL75 0 -1207492.5427142966
Cbr75 netL75 0 -9.954582790889901e-22

* Branch 76
Rabr76 node_1 netRa76 528198.3875049466
Lbr76 netRa76 netL76 -5.37779407808674e-10
Rbbr76 netL76 0 -1494467.5629214344
Cbr76 netL76 0 -6.8118441392465635e-22

* Branch 77
Rabr77 node_1 netRa77 -2148852.708585978
Lbr77 netRa77 netL77 -1.0254814249709222e-09
Rbbr77 netL77 0 2735726.9588983473
Cbr77 netL77 0 -1.7445447198180675e-22

* Branch 78
Rabr78 node_1 netRa78 20580.208029808186
Lbr78 netRa78 netL78 -4.136689238031638e-10
Rbbr78 netL78 0 -3675059.6408230644
Cbr78 netL78 0 -5.446883406705408e-21

* Branch 79
Rabr79 node_1 netRa79 87232.81286877343
Lbr79 netRa79 netL79 6.109863391196991e-11
Rbbr79 netL79 0 -196672.49034649978
Cbr79 netL79 0 3.561860113943774e-21

* Branch 80
Rabr80 node_1 netRa80 5569929.865362174
Lbr80 netRa80 netL80 -7.14905418813785e-10
Rbbr80 netL80 0 -5778622.199106361
Cbr80 netL80 0 -2.2210644422556205e-23

* Branch 81
Rabr81 node_1 netRa81 77472.31227197054
Lbr81 netRa81 netL81 -2.7015565184296816e-10
Rbbr81 netL81 0 -1480376.1822768773
Cbr81 netL81 0 -2.3535590632019442e-21

* Branch 82
Rabr82 node_1 netRa82 76850.53043462327
Lbr82 netRa82 netL82 7.201880761596793e-11
Rbbr82 netL82 0 -168922.4951399578
Cbr82 netL82 0 5.549067581884204e-21

* Branch 83
Rabr83 node_1 netRa83 2132724.085353821
Lbr83 netRa83 netL83 4.5566115164543105e-10
Rbbr83 netL83 0 -2348936.362138941
Cbr83 netL83 0 9.096260874504686e-23

* Branch 84
Rabr84 node_1 netRa84 -1765692.4239919463
Lbr84 netRa84 netL84 -5.582029359366656e-10
Rbbr84 netL84 0 1970411.7189095756
Cbr84 netL84 0 -1.604579040695112e-22

* Branch 85
Rabr85 node_1 netRa85 126193.06861499159
Lbr85 netRa85 netL85 -1.399607518700548e-10
Rbbr85 netL85 0 -446312.07598437543
Cbr85 netL85 0 -2.4841570251865657e-21

* Branch 86
Rabr86 node_1 netRa86 82248.4235191142
Lbr86 netRa86 netL86 -8.540437718176072e-11
Rbbr86 netL86 0 -119441.26322267062
Cbr86 netL86 0 -8.690377949611375e-21

* Branch 87
Rabr87 node_1 netRa87 15665.108947236446
Lbr87 netRa87 netL87 3.51239932485683e-11
Rbbr87 netL87 0 -199500.29042559423
Cbr87 netL87 0 1.1248163660177521e-20

* Branch 88
Rabr88 node_1 netRa88 -4611.894095826369
Lbr88 netRa88 netL88 -1.1589162304938637e-10
Rbbr88 netL88 0 5779040.7585602235
Cbr88 netL88 0 -4.397038858159685e-21

* Branch 89
Rabr89 node_1 netRa89 32663.86335298063
Lbr89 netRa89 netL89 -1.3059098232367267e-10
Rbbr89 netL89 0 -419732.9558306711
Cbr89 netL89 0 -9.506896692647016e-21

* Branch 90
Rabr90 node_1 netRa90 123211.4810060218
Lbr90 netRa90 netL90 -2.8393890368945033e-10
Rbbr90 netL90 0 -629066.4111830115
Cbr90 netL90 0 -3.6587475321580306e-21

* Branch 91
Rabr91 node_1 netRa91 466141.9714499129
Lbr91 netRa91 netL91 -2.365931554697915e-10
Rbbr91 netL91 0 -551709.8447550775
Cbr91 netL91 0 -9.196735741641014e-22

* Branch 92
Rabr92 node_1 netRa92 87656.99362654924
Lbr92 netRa92 netL92 5.677060516091707e-11
Rbbr92 netL92 0 -194755.57384224495
Cbr92 netL92 0 3.3269381743173596e-21

* Branch 93
Rabr93 node_1 netRa93 95441.96935099683
Lbr93 netRa93 netL93 -9.725701965999768e-11
Rbbr93 netL93 0 -175282.57045609155
Cbr93 netL93 0 -5.809106250952137e-21

* Branch 94
Rabr94 node_1 netRa94 493984.5313804213
Lbr94 netRa94 netL94 8.668192016968509e-11
Rbbr94 netL94 0 -534629.4577800112
Cbr94 netL94 0 3.282664370725654e-22

* Branch 95
Rabr95 node_1 netRa95 -2591.9353300831285
Lbr95 netRa95 netL95 3.6229155156190678e-12
Rbbr95 netL95 0 18938.14673751032
Cbr95 netL95 0 7.368400364300867e-20

* Branch 96
Rabr96 node_1 netRa96 42218.09528572963
Lbr96 netRa96 netL96 2.905099666058375e-11
Rbbr96 netL96 0 -105464.2714198148
Cbr96 netL96 0 6.5302206088712314e-21

* Branch 97
Rabr97 node_1 netRa97 143680.6173203484
Lbr97 netRa97 netL97 3.873509240613896e-11
Rbbr97 netL97 0 -172222.04174404513
Cbr97 netL97 0 1.5659281706221555e-21

* Branch 98
Rabr98 node_1 netRa98 281565.17268607725
Lbr98 netRa98 netL98 -3.9054698433440936e-11
Rbbr98 netL98 0 -298357.4685079822
Cbr98 netL98 0 -4.647841464741996e-22

* Branch 99
Rabr99 node_1 netRa99 5824.106788088408
Lbr99 netRa99 netL99 -2.862532129830074e-12
Rbbr99 netL99 0 -10523.565209165967
Cbr99 netL99 0 -4.582883626100228e-20

.ends


* Y'12
.subckt yp12 node_1 node_2
* Branch 0
Rabr0 node_1 netRa0 -93.8986377214537
Lbr0 netRa0 netL0 1.306430107095016e-13
Rbbr0 netL0 node_2 377.0728025344691
Cbr0 netL0 node_2 3.153268525187051e-18

* Branch 1
Rabr1 node_1 netRa1 -40.10823038963884
Lbr1 netRa1 netL1 5.814250964792625e-14
Rbbr1 netL1 node_2 165.61115196748767
Cbr1 netL1 node_2 7.467001841788674e-18

* Branch 2
Rabr2 node_1 netRa2 -310.2950835823065
Lbr2 netRa2 netL2 1.4110856232680926e-13
Rbbr2 netL2 node_2 419.5065003231486
Cbr2 netL2 node_2 1.0370985642563338e-18

* Branch 3
Rabr3 node_1 netRa3 -487.6085384281788
Lbr3 netRa3 netL3 2.539536880613388e-13
Rbbr3 netL3 node_2 716.224866889084
Cbr3 netL3 node_2 6.927127870229529e-19

* Branch 4
Rabr4 node_1 netRa4 -2698.3712181840688
Lbr4 netRa4 netL4 4.089513821268382e-13
Rbbr4 netL4 node_2 2807.567133999856
Cbr4 netL4 node_2 5.3273593747816844e-20

* Branch 5
Rabr5 node_1 netRa5 153.49227831009682
Lbr5 netRa5 netL5 2.4460942973490186e-13
Rbbr5 netL5 node_2 -967.6391747458163
Cbr5 netL5 node_2 1.854796962181044e-18

* Branch 6
Rabr6 node_1 netRa6 66.07548835704554
Lbr6 netRa6 netL6 -3.56544792536057e-14
Rbbr6 netL6 node_2 -95.68804388247833
Cbr6 netL6 node_2 -5.449557384841234e-18

* Branch 7
Rabr7 node_1 netRa7 -26.543093408027815
Lbr7 netRa7 netL7 -7.655947193544539e-14
Rbbr7 netL7 node_2 486.68062255976264
Cbr7 netL7 node_2 -6.8359211183714775e-18

* Branch 8
Rabr8 node_1 netRa8 -5.587145496253745
Lbr8 netRa8 netL8 1.3563699853795534e-13
Rbbr8 netL8 node_2 2563.831585211404
Cbr8 netL8 node_2 4.751000849043171e-18

* Branch 9
Rabr9 node_1 netRa9 -112.25136786761517
Lbr9 netRa9 netL9 1.0827342955092167e-13
Rbbr9 netL9 node_2 268.6315660159456
Cbr9 netL9 node_2 3.4694306485485816e-18

* Branch 10
Rabr10 node_1 netRa10 -1202429.2891390962
Lbr10 netRa10 netL10 -1.1138649829740693e-11
Rbbr10 netL10 node_2 1202591.247015562
Cbr10 netL10 node_2 -7.705467879887805e-24

* Branch 11
Rabr11 node_1 netRa11 200.3258897914002
Lbr11 netRa11 netL11 7.570330209330387e-14
Rbbr11 netL11 node_2 -252.02064351305373
Cbr11 netL11 node_2 1.5196802646868807e-18

* Branch 12
Rabr12 node_1 netRa12 241.14733655182187
Lbr12 netRa12 netL12 -7.233230496932981e-14
Rbbr12 netL12 node_2 -280.4472289749641
Cbr12 netL12 node_2 -1.0586749421227908e-18

* Branch 13
Rabr13 node_1 netRa13 31998.956031408175
Lbr13 netRa13 netL13 -1.7153102195299182e-12
Rbbr13 netL13 node_2 -32156.25621803387
Cbr13 netL13 node_2 -1.663986989579704e-21

* Branch 14
Rabr14 node_1 netRa14 -70.29240821966471
Lbr14 netRa14 netL14 4.166317096708036e-14
Rbbr14 netL14 node_2 107.89985332041266
Cbr14 netL14 node_2 5.403728658187795e-18

* Branch 15
Rabr15 node_1 netRa15 140.38805395168555
Lbr15 netRa15 netL15 5.96352339231911e-14
Rbbr15 netL15 node_2 -180.67401240971233
Cbr15 netL15 node_2 2.3792793300086244e-18

* Branch 16
Rabr16 node_1 netRa16 -1885.5111515771498
Lbr16 netRa16 netL16 -5.809017049447567e-13
Rbbr16 netL16 node_2 2140.8356047984253
Cbr16 netL16 node_2 -1.451205444245278e-19

* Branch 17
Rabr17 node_1 netRa17 -6522.679533953477
Lbr17 netRa17 netL17 1.1709850663381918e-12
Rbbr17 netL17 node_2 6805.478747504596
Cbr17 netL17 node_2 2.6271712258744623e-20

* Branch 18
Rabr18 node_1 netRa18 -2221.887318626927
Lbr18 netRa18 netL18 -5.330899044149146e-13
Rbbr18 netL18 node_2 2410.505251547791
Cbr18 netL18 node_2 -1.0005433612488984e-19

* Branch 19
Rabr19 node_1 netRa19 -248.25095073721775
Lbr19 netRa19 netL19 2.260031792032255e-13
Rbbr19 netL19 node_2 878.2209613341126
Cbr19 netL19 node_2 1.0169044690881346e-18

* Branch 20
Rabr20 node_1 netRa20 -14217.947480682562
Lbr20 netRa20 netL20 1.6948560549261357e-12
Rbbr20 netL20 node_2 14833.055307445353
Cbr20 netL20 node_2 8.016297745376568e-21

* Branch 21
Rabr21 node_1 netRa21 -120073.79437596863
Lbr21 netRa21 netL21 1.2006300316272306e-11
Rbbr21 netL21 node_2 120635.72726181553
Cbr21 netL21 node_2 8.2718544920995e-22

* Branch 22
Rabr22 node_1 netRa22 -5588.050399164593
Lbr22 netRa22 netL22 1.4964274189325056e-12
Rbbr22 netL22 node_2 6871.179515697257
Cbr22 netL22 node_2 3.876924564518097e-20

* Branch 23
Rabr23 node_1 netRa23 -9450.770699658538
Lbr23 netRa23 netL23 -1.5379601987956191e-12
Rbbr23 netL23 node_2 10199.219781306578
Cbr23 netL23 node_2 -1.6005227189406777e-20

* Branch 24
Rabr24 node_1 netRa24 -218.60160610707592
Lbr24 netRa24 netL24 -1.29705055030079e-13
Rbbr24 netL24 node_2 336.5011268301105
Cbr24 netL24 node_2 -1.782679380101178e-18

* Branch 25
Rabr25 node_1 netRa25 8660.133747392798
Lbr25 netRa25 netL25 1.3448310289743306e-12
Rbbr25 netL25 node_2 -9360.25249452092
Cbr25 netL25 node_2 1.663762863466418e-20

* Branch 26
Rabr26 node_1 netRa26 33.34790901601987
Lbr26 netRa26 netL26 -5.97904098418687e-14
Rbbr26 netL26 node_2 -228.1197141117087
Cbr26 netL26 node_2 -7.613411057269939e-18

* Branch 27
Rabr27 node_1 netRa27 -2689.512228739211
Lbr27 netRa27 netL27 4.3878384834714316e-13
Rbbr27 netL27 node_2 2853.6011830639936
Cbr27 netL27 node_2 5.701321487250022e-20

* Branch 28
Rabr28 node_1 netRa28 604.3752742743923
Lbr28 netRa28 netL28 4.847558264109833e-13
Rbbr28 netL28 node_2 -1898.556077088233
Cbr28 netL28 node_2 4.278633301254332e-19

* Branch 29
Rabr29 node_1 netRa29 -489.6160184034313
Lbr29 netRa29 netL29 -4.24725750758165e-13
Rbbr29 netL29 node_2 804.2131046953035
Cbr29 netL29 node_2 -1.0918667088756362e-18

* Branch 30
Rabr30 node_1 netRa30 22870.504813394742
Lbr30 netRa30 netL30 -3.445187550709633e-12
Rbbr30 netL30 node_2 -24393.904427267826
Cbr30 netL30 node_2 -6.162755865593605e-21

* Branch 31
Rabr31 node_1 netRa31 -72190.89522175697
Lbr31 netRa31 netL31 3.675754437106337e-12
Rbbr31 netL31 node_2 72435.30115828967
Cbr31 netL31 node_2 7.024721479994876e-22

* Branch 32
Rabr32 node_1 netRa32 573.980259988249
Lbr32 netRa32 netL32 5.046469255732894e-13
Rbbr32 netL32 node_2 -1694.0561733846296
Cbr32 netL32 node_2 5.248559227299432e-19

* Branch 33
Rabr33 node_1 netRa33 -443.9729335267535
Lbr33 netRa33 netL33 -4.218361564088024e-13
Rbbr33 netL33 node_2 1627.2684518952826
Cbr33 netL33 node_2 -5.907862619341236e-19

* Branch 34
Rabr34 node_1 netRa34 9884.794544516353
Lbr34 netRa34 netL34 2.108974066820669e-12
Rbbr34 netL34 node_2 -11429.976296198589
Cbr34 netL34 node_2 1.8715330117372516e-20

* Branch 35
Rabr35 node_1 netRa35 -697.7788681839558
Lbr35 netRa35 netL35 1.9555923129356985e-13
Rbbr35 netL35 node_2 820.5356434472561
Cbr35 netL35 node_2 3.40390587509351e-19

* Branch 36
Rabr36 node_1 netRa36 -4533.145704781882
Lbr36 netRa36 netL36 8.126453963819391e-13
Rbbr36 netL36 node_2 4912.601735699819
Cbr36 netL36 node_2 3.641197557478616e-20

* Branch 37
Rabr37 node_1 netRa37 15.291892756564325
Lbr37 netRa37 netL37 -6.226373022777897e-14
Rbbr37 netL37 node_2 -316.15579875454813
Cbr37 netL37 node_2 -1.2332383292991816e-17

* Branch 38
Rabr38 node_1 netRa38 15841.346801408901
Lbr38 netRa38 netL38 2.2763120732135573e-12
Rbbr38 netL38 node_2 -16895.601002879383
Cbr38 netL38 node_2 8.516664871643869e-21

* Branch 39
Rabr39 node_1 netRa39 -163.6469849347797
Lbr39 netRa39 netL39 -2.2766158350958366e-13
Rbbr39 netL39 node_2 458.4878119108506
Cbr39 netL39 node_2 -3.0744049341959714e-18

* Branch 40
Rabr40 node_1 netRa40 16.184677267314818
Lbr40 netRa40 netL40 -1.2017073050149982e-13
Rbbr40 netL40 node_2 -988.1477058755431
Cbr40 netL40 node_2 -7.05185583278786e-18

* Branch 41
Rabr41 node_1 netRa41 1030.2715458297764
Lbr41 netRa41 netL41 4.894836097071469e-13
Rbbr41 netL41 node_2 -1597.3965457047066
Cbr41 netL41 node_2 2.9867475967543567e-19

* Branch 42
Rabr42 node_1 netRa42 3119.0844697803136
Lbr42 netRa42 netL42 1.0873296984351756e-12
Rbbr42 netL42 node_2 -4319.72331894191
Cbr42 netL42 node_2 8.093784487258084e-20

* Branch 43
Rabr43 node_1 netRa43 -644.4289755963391
Lbr43 netRa43 netL43 -5.387198767787022e-13
Rbbr43 netL43 node_2 985.8190933919881
Cbr43 netL43 node_2 -8.539478226986535e-19

* Branch 44
Rabr44 node_1 netRa44 92009.1377968801
Lbr44 netRa44 netL44 6.3728647538202116e-12
Rbbr44 netL44 node_2 -93136.22422238666
Cbr44 netL44 node_2 7.440721112044843e-22

* Branch 45
Rabr45 node_1 netRa45 -69.51679249921384
Lbr45 netRa45 netL45 -1.5964974818223396e-13
Rbbr45 netL45 node_2 442.2481267311618
Cbr45 netL45 node_2 -5.274740039526268e-18

* Branch 46
Rabr46 node_1 netRa46 718.5639586308291
Lbr46 netRa46 netL46 5.051334724988281e-13
Rbbr46 netL46 node_2 -1668.396390500857
Cbr46 netL46 node_2 4.231998896471914e-19

* Branch 47
Rabr47 node_1 netRa47 12842.896947687694
Lbr47 netRa47 netL47 3.011951559494564e-12
Rbbr47 netL47 node_2 -15312.43603743136
Cbr47 netL47 node_2 1.5337036991010094e-20

* Branch 48
Rabr48 node_1 netRa48 13.055617484470222
Lbr48 netRa48 netL48 -1.8269001703605864e-13
Rbbr48 netL48 node_2 -4536.418646138366
Cbr48 netL48 node_2 -2.850683097909374e-18

* Branch 49
Rabr49 node_1 netRa49 -639.1116797133337
Lbr49 netRa49 netL49 -2.980016653189777e-13
Rbbr49 netL49 node_2 938.6399386822728
Cbr49 netL49 node_2 -4.980516207894649e-19

* Branch 50
Rabr50 node_1 netRa50 -1302.7899845754823
Lbr50 netRa50 netL50 2.920088230884707e-13
Rbbr50 netL50 node_2 1455.467624332698
Cbr50 netL50 node_2 1.5380994573821576e-19

* Branch 51
Rabr51 node_1 netRa51 -6699.32344133412
Lbr51 netRa51 netL51 -2.025370786088076e-12
Rbbr51 netL51 node_2 7115.82445108944
Cbr51 netL51 node_2 -4.255279162845768e-20

* Branch 52
Rabr52 node_1 netRa52 -328.4750283775336
Lbr52 netRa52 netL52 -4.685156468242834e-13
Rbbr52 netL52 node_2 2114.772674797393
Cbr52 netL52 node_2 -6.793997232329062e-19

* Branch 53
Rabr53 node_1 netRa53 -34472216.735019565
Lbr53 netRa53 netL53 1.806496385296116e-10
Rbbr53 netL53 node_2 34472729.99197607
Cbr53 netL53 node_2 1.5201312498874143e-25

* Branch 54
Rabr54 node_1 netRa54 -593.6014551012836
Lbr54 netRa54 netL54 -2.2676272017643363e-13
Rbbr54 netL54 node_2 774.9656249759894
Cbr54 netL54 node_2 -4.937683035448074e-19

* Branch 55
Rabr55 node_1 netRa55 4463.916123402828
Lbr55 netRa55 netL55 -1.5109318617148002e-12
Rbbr55 netL55 node_2 -5882.62730046013
Cbr55 netL55 node_2 -5.747740777952875e-20

* Branch 56
Rabr56 node_1 netRa56 2513.4686038377613
Lbr56 netRa56 netL56 5.66578942536464e-13
Rbbr56 netL56 node_2 -2816.83612896378
Cbr56 netL56 node_2 8.007936786196872e-20

* Branch 57
Rabr57 node_1 netRa57 -133.55230301435714
Lbr57 netRa57 netL57 3.2274116267318575e-13
Rbbr57 netL57 node_2 1033.260413627482
Cbr57 netL57 node_2 2.322271191159401e-18

* Branch 58
Rabr58 node_1 netRa58 1624.2872148278334
Lbr58 netRa58 netL58 -1.0266728062782458e-12
Rbbr58 netL58 node_2 -3461.4487909346703
Cbr58 netL58 node_2 -1.8226606401345246e-19

* Branch 59
Rabr59 node_1 netRa59 -704.5812378046343
Lbr59 netRa59 netL59 -2.94701659887218e-13
Rbbr59 netL59 node_2 976.8513152456222
Cbr59 netL59 node_2 -4.286765378276524e-19

* Branch 60
Rabr60 node_1 netRa60 356721.22704296495
Lbr60 netRa60 netL60 -2.41425290613936e-11
Rbbr60 netL60 node_2 -358552.07376480015
Cbr60 netL60 node_2 -1.8872613686423062e-22

* Branch 61
Rabr61 node_1 netRa61 404.25035487689087
Lbr61 netRa61 netL61 -3.7291512810675664e-13
Rbbr61 netL61 node_2 -1183.1185973067345
Cbr61 netL61 node_2 -7.780612084634129e-19

* Branch 62
Rabr62 node_1 netRa62 1499.418837670276
Lbr62 netRa62 netL62 -8.709314719167949e-13
Rbbr62 netL62 node_2 -2816.3863227935476
Cbr62 netL62 node_2 -2.0597431665157672e-19

* Branch 63
Rabr63 node_1 netRa63 6423.97529823755
Lbr63 netRa63 netL63 5.579014098823113e-12
Rbbr63 netL63 node_2 -10181.310232170163
Cbr63 netL63 node_2 8.545130601746598e-20

* Branch 64
Rabr64 node_1 netRa64 4795.170206233212
Lbr64 netRa64 netL64 -1.7693889351886102e-12
Rbbr64 netL64 node_2 -6570.2818219621495
Cbr64 netL64 node_2 -5.611909407657878e-20

* Branch 65
Rabr65 node_1 netRa65 6471.506712252993
Lbr65 netRa65 netL65 -5.33742815674815e-12
Rbbr65 netL65 node_2 -9213.482661392709
Cbr65 netL65 node_2 -8.937510004957676e-20

* Branch 66
Rabr66 node_1 netRa66 901.2282377896128
Lbr66 netRa66 netL66 1.3413439189971437e-12
Rbbr66 netL66 node_2 -8035.136940131702
Cbr66 netL66 node_2 1.857531972471539e-19

* Branch 67
Rabr67 node_1 netRa67 46132.69658952534
Lbr67 netRa67 netL67 1.2743358427465036e-11
Rbbr67 netL67 node_2 -48972.27706273204
Cbr67 netL67 node_2 5.642759708740402e-21

* Branch 68
Rabr68 node_1 netRa68 -50.11031418303911
Lbr68 netRa68 netL68 -1.7010480739731476e-13
Rbbr68 netL68 node_2 1396.5702907557152
Cbr68 netL68 node_2 -2.4420749036581735e-18

* Branch 69
Rabr69 node_1 netRa69 -2726.4613595164333
Lbr69 netRa69 netL69 5.320565657451467e-12
Rbbr69 netL69 node_2 13579.922174643134
Cbr69 netL69 node_2 1.4332480998051213e-19

* Branch 70
Rabr70 node_1 netRa70 3814.4304646518012
Lbr70 netRa70 netL70 6.408707235756872e-12