* netlist generated with vector fitting poles and residues

.subckt total_network node_1 node_2 node_3 node_4 
X_11 node_1 0 yp11
X_12 node_1 node_2 yp12
X_13 node_1 node_3 yp13
X_14 node_1 node_4 yp14
X_22 node_2 0 yp22
X_23 node_2 node_3 yp23
X_24 node_2 node_4 yp24
X_33 node_3 0 yp33
X_34 node_3 node_4 yp34
X_44 node_4 0 yp44
.ends


* Y'11
.subckt yp11 node_1 0
* Branch 0
Rabr0 node_1 netRa0 9682.55713555277
Lbr0 netRa0 netL0 -1.3057374482872816e-11
Rbbr0 netL0 0 -65093.07268096887
Cbr0 netL0 0 -2.0005385540770708e-20

* Branch 1
Rabr1 node_1 netRa1 -114.34416309868016
Lbr1 netRa1 netL1 -2.8677797070629378e-11
Rbbr1 netL1 0 -4207687.046794687
Cbr1 netL1 0 -1.3041157784312053e-20

* Branch 2
Rabr2 node_1 netRa2 10450.205590163956
Lbr2 netRa2 netL2 -1.43591505855453e-11
Rbbr2 netL2 0 -73197.99111794688
Cbr2 netL2 0 -1.823535239063292e-20

* Branch 3
Rabr3 node_1 netRa3 14830.563171383776
Lbr3 netRa3 netL3 -2.21778197117018e-11
Rbbr3 netL3 0 -106086.9536937453
Cbr3 netL3 0 -1.3672189493273814e-20

* Branch 4
Rabr4 node_1 netRa4 45685.540439772056
Lbr4 netRa4 netL4 -5.944952230663264e-11
Rbbr4 netL4 0 -168767.93110950515
Cbr4 netL4 0 -7.521869188143886e-21

* Branch 5
Rabr5 node_1 netRa5 -46444.88689428135
Lbr5 netRa5 netL5 -4.555961872515317e-11
Rbbr5 netL5 0 162958.53448667488
Cbr5 netL5 0 -6.1341594638928334e-21

* Branch 6
Rabr6 node_1 netRa6 756458.5129565139
Lbr6 netRa6 netL6 2.2158946513337628e-10
Rbbr6 netL6 0 -866715.7803845919
Cbr6 netL6 0 3.3986499359415727e-22

* Branch 7
Rabr7 node_1 netRa7 992315.8271891995
Lbr7 netRa7 netL7 1.8409278134796681e-10
Rbbr7 netL7 0 -1077372.5147544127
Cbr7 netL7 0 1.7279675873309792e-22

* Branch 8
Rabr8 node_1 netRa8 -18832.469095122036
Lbr8 netRa8 netL8 -1.0223041711423415e-10
Rbbr8 netL8 0 920743.9500050528
Cbr8 netL8 0 -6.557244623371741e-21

* Branch 9
Rabr9 node_1 netRa9 51555.394195445566
Lbr9 netRa9 netL9 -4.8367070734926385e-11
Rbbr9 netL9 0 -156629.85828399024
Cbr9 netL9 0 -5.896467785420137e-21

* Branch 10
Rabr10 node_1 netRa10 11324.87518919889
Lbr10 netRa10 netL10 -9.71637947391237e-11
Rbbr10 netL10 0 -671272.4850327042
Cbr10 netL10 0 -1.1178575530008759e-20

* Branch 11
Rabr11 node_1 netRa11 41469.10900646528
Lbr11 netRa11 netL11 -6.480869518416271e-11
Rbbr11 netL11 0 -179418.17680649023
Cbr11 netL11 0 -8.499628905015623e-21

* Branch 12
Rabr12 node_1 netRa12 57134.12619653855
Lbr12 netRa12 netL12 -2.2280861615706043e-11
Rbbr12 netL12 0 -82588.70685229654
Cbr12 netL12 0 -4.693200724672375e-21

* Branch 13
Rabr13 node_1 netRa13 21259.937631155386
Lbr13 netRa13 netL13 -7.147655923838164e-11
Rbbr13 netL13 0 -304275.9791640061
Cbr13 netL13 0 -1.0496649020162748e-20

* Branch 14
Rabr14 node_1 netRa14 -22379.599743931645
Lbr14 netRa14 netL14 -2.2399993926125166e-11
Rbbr14 netL14 0 92040.82727598262
Cbr14 netL14 0 -1.1039095644377212e-20

* Branch 15
Rabr15 node_1 netRa15 3051.3690189883255
Lbr15 netRa15 netL15 -1.2214986870949049e-11
Rbbr15 netL15 0 -151373.20765029188
Cbr15 netL15 0 -2.5007529426912268e-20

* Branch 16
Rabr16 node_1 netRa16 56053.82667127487
Lbr16 netRa16 netL16 -4.272171391083969e-11
Rbbr16 netL16 0 -161807.68478213297
Cbr16 netL16 0 -4.6599189176663524e-21

* Branch 17
Rabr17 node_1 netRa17 16705.887340598456
Lbr17 netRa17 netL17 -7.765142569707275e-11
Rbbr17 netL17 0 -406829.4161683298
Cbr17 netL17 0 -1.0752226292840858e-20

* Branch 18
Rabr18 node_1 netRa18 -12621.372756057304
Lbr18 netRa18 netL18 -1.3177319270599409e-10
Rbbr18 netL18 0 2824601.6757770134
Cbr18 netL18 0 -4.285754795544353e-21

* Branch 19
Rabr19 node_1 netRa19 11435.619093261614
Lbr19 netRa19 netL19 -8.410376146685486e-11
Rbbr19 netL19 0 -600545.6984765135
Cbr19 netL19 0 -1.1187206478676762e-20

* Branch 20
Rabr20 node_1 netRa20 22870.25711686823
Lbr20 netRa20 netL20 -6.780817119144698e-11
Rbbr20 netL20 0 -279417.95244734123
Cbr20 netL20 0 -1.0232627403648788e-20

* Branch 21
Rabr21 node_1 netRa21 3665.4652504473356
Lbr21 netRa21 netL21 -1.0206972447223453e-10
Rbbr21 netL21 0 -1597373.5097560373
Cbr21 netL21 0 -1.2955689191095389e-20

* Branch 22
Rabr22 node_1 netRa22 11037704.4933524
Lbr22 netRa22 netL22 7.116321640066881e-10
Rbbr22 netL22 0 -11149588.967409648
Cbr22 netL22 0 5.78697233842848e-24

* Branch 23
Rabr23 node_1 netRa23 18715.46971047185
Lbr23 netRa23 netL23 -4.5030529344377164e-11
Rbbr23 netL23 0 -178918.0632834639
Cbr23 netL23 0 -1.3087705704887156e-20

* Branch 24
Rabr24 node_1 netRa24 7122.9953706235265
Lbr24 netRa24 netL24 -8.758918681358107e-11
Rbbr24 netL24 0 -948104.112885361
Cbr24 netL24 0 -1.138993802952057e-20

* Branch 25
Rabr25 node_1 netRa25 26246.24464171199
Lbr25 netRa25 netL25 -4.7403613239620146e-11
Rbbr25 netL25 0 -214955.11012955688
Cbr25 netL25 0 -8.235447948274391e-21

* Branch 26
Rabr26 node_1 netRa26 9131.850507255338
Lbr26 netRa26 netL26 -6.168011436586669e-11
Rbbr26 netL26 0 -776375.9563538962
Cbr26 netL26 0 -8.150117383381276e-21

* Branch 27
Rabr27 node_1 netRa27 1907.922450095985
Lbr27 netRa27 netL27 -8.56764015091066e-11
Rbbr27 netL27 0 -1645838.3127996193
Cbr27 netL27 0 -1.907436904283744e-20

* Branch 28
Rabr28 node_1 netRa28 25044555.436964214
Lbr28 netRa28 netL28 -1.4302322633121214e-09
Rbbr28 netL28 0 -25088582.543713357
Cbr28 netL28 0 -2.275014491614527e-24

* Branch 29
Rabr29 node_1 netRa29 11936.41441889433
Lbr29 netRa29 netL29 -8.996425243799957e-11
Rbbr29 netL29 0 -417093.8244735396
Cbr29 netL29 0 -1.6932037987337186e-20

* Branch 30
Rabr30 node_1 netRa30 -2039.812479780282
Lbr30 netRa30 netL30 -8.11547536647565e-11
Rbbr30 netL30 0 9038849.467473593
Cbr30 netL30 0 -6.704438981515437e-21

* Branch 31
Rabr31 node_1 netRa31 169169784.70056576
Lbr31 netRa31 netL31 -2.9161342194399864e-09
Rbbr31 netL31 0 -169249481.0021429
Cbr31 netL31 0 -1.0183544104148048e-25

* Branch 32
Rabr32 node_1 netRa32 17857.268611137908
Lbr32 netRa32 netL32 -7.88403086596318e-11
Rbbr32 netL32 0 -384571.915619451
Cbr32 netL32 0 -1.1099632005335666e-20

* Branch 33
Rabr33 node_1 netRa33 -2808.7776832747395
Lbr33 netRa33 netL33 -8.52374144298187e-11
Rbbr33 netL33 0 2309554.5937944558
Cbr33 netL33 0 -1.7097393641934817e-20

* Branch 34
Rabr34 node_1 netRa34 14984.735604828786
Lbr34 netRa34 netL34 -8.962831364910095e-11
Rbbr34 netL34 0 -264698.3010156331
Cbr34 netL34 0 -2.1611026381641544e-20

* Branch 35
Rabr35 node_1 netRa35 -65944.29758979697
Lbr35 netRa35 netL35 -1.970941125207198e-10
Rbbr35 netL35 0 401155.6924110156
Cbr35 netL35 0 -7.608958998679423e-21

* Branch 36
Rabr36 node_1 netRa36 233753.18454862852
Lbr36 netRa36 netL36 -1.6289096019701788e-10
Rbbr36 netL36 0 -328883.141154217
Cbr36 netL36 0 -2.1090352341135614e-21

* Branch 37
Rabr37 node_1 netRa37 248521.28326171817
Lbr37 netRa37 netL37 -2.0185016442036176e-10
Rbbr37 netL37 0 -354917.8402061073
Cbr37 netL37 0 -2.276671842672379e-21

* Branch 38
Rabr38 node_1 netRa38 163289.15597340005
Lbr38 netRa38 netL38 -1.2596535819630183e-10
Rbbr38 netL38 0 -312180.940634655
Cbr38 netL38 0 -2.459024596174798e-21

* Branch 39
Rabr39 node_1 netRa39 3921.8718088871656
Lbr39 netRa39 netL39 -6.8948072256909e-11
Rbbr39 netL39 0 -898096.0764479276
Cbr39 netL39 0 -1.7618068585068034e-20

* Branch 40
Rabr40 node_1 netRa40 26112.461428301165
Lbr40 netRa40 netL40 -3.6809835260050025e-11
Rbbr40 netL40 0 -180962.21770745743
Cbr40 netL40 0 -7.729413568700118e-21

* Branch 41
Rabr41 node_1 netRa41 23407.136065766197
Lbr41 netRa41 netL41 -4.6016342413184756e-11
Rbbr41 netL41 0 -224556.78643393956
Cbr41 netL41 0 -8.66288095453309e-21

* Branch 42
Rabr42 node_1 netRa42 -111817.41997280526
Lbr42 netRa42 netL42 -2.549220928717159e-10
Rbbr42 netL42 0 462439.507942023
Cbr42 netL42 0 -4.98680040192516e-21

* Branch 43
Rabr43 node_1 netRa43 115834.98793769428
Lbr43 netRa43 netL43 -1.7466881228158853e-10
Rbbr43 netL43 0 -450398.34694360686
Cbr43 netL43 0 -3.327747783277522e-21

* Branch 44
Rabr44 node_1 netRa44 4770113.481247232
Lbr44 netRa44 netL44 4.120651190001868e-10
Rbbr44 netL44 0 -4873610.1495759655
Cbr44 netL44 0 1.773112085312013e-23

* Branch 45
Rabr45 node_1 netRa45 -69585.12138403358
Lbr45 netRa45 netL45 -8.423099949188626e-11
Rbbr45 netL45 0 419518.74372744234
Cbr45 netL45 0 -2.8974229142809013e-21

* Branch 46
Rabr46 node_1 netRa46 -10079.371338638643
Lbr46 netRa46 netL46 -1.7121637089127173e-11
Rbbr46 netL46 0 112852.17369184022
Cbr46 netL46 0 -1.5136107145254464e-20

* Branch 47
Rabr47 node_1 netRa47 14565.286634803382
Lbr47 netRa47 netL47 -5.4140078834884714e-11
Rbbr47 netL47 0 -428102.0631348831
Cbr47 netL47 0 -8.582773221954248e-21

* Branch 48
Rabr48 node_1 netRa48 97229.26005092342
Lbr48 netRa48 netL48 -1.7846704880354776e-10
Rbbr48 netL48 0 -240906.12999013995
Cbr48 netL48 0 -7.577769813541472e-21

* Branch 49
Rabr49 node_1 netRa49 338767.1130435258
Lbr49 netRa49 netL49 -2.5347077327062853e-10
Rbbr49 netL49 0 -523208.1258627136
Cbr49 netL49 0 -1.4273545883037223e-21

* Branch 50
Rabr50 node_1 netRa50 46215.700704076706
Lbr50 netRa50 netL50 -1.0358516441408545e-10
Rbbr50 netL50 0 -390624.9462871416
Cbr50 netL50 0 -5.7065660438796865e-21

* Branch 51
Rabr51 node_1 netRa51 -204652.0137794727
Lbr51 netRa51 netL51 -4.096591572887711e-10
Rbbr51 netL51 0 672465.8948864035
Cbr51 netL51 0 -2.988719583426691e-21

* Branch 52
Rabr52 node_1 netRa52 46573.32753899094
Lbr52 netRa52 netL52 1.4512539540052528e-10
Rbbr52 netL52 0 -372108.89665791334
Cbr52 netL52 0 8.424927182135198e-21

* Branch 53
Rabr53 node_1 netRa53 1726536.3592950145
Lbr53 netRa53 netL53 -4.235817804260487e-10
Rbbr53 netL53 0 -2010074.856853814
Cbr53 netL53 0 -1.2200702036542217e-22

* Branch 54
Rabr54 node_1 netRa54 19238.253698783617
Lbr54 netRa54 netL54 -1.7825870372506728e-10
Rbbr54 netL54 0 -700173.7350087942
Cbr54 netL54 0 -1.3048272039136972e-20

* Branch 55
Rabr55 node_1 netRa55 -35161.98219027599
Lbr55 netRa55 netL55 -2.147567241326797e-10
Rbbr55 netL55 0 1101071.3639419975
Cbr55 netL55 0 -5.595027481463152e-21

* Branch 56
Rabr56 node_1 netRa56 -131737485.51209903
Lbr56 netRa56 netL56 1.0901180536805525e-09
Rbbr56 netL56 0 131765610.3056443
Cbr56 netL56 0 6.279963310308649e-26

* Branch 57
Rabr57 node_1 netRa57 77167849.80705222
Lbr57 netRa57 netL57 4.472308716672802e-09
Rbbr57 netL57 0 -77393865.78123914
Cbr57 netL57 0 7.488962250241873e-25

* Branch 58
Rabr58 node_1 netRa58 106519.9164418697
Lbr58 netRa58 netL58 -1.999366344823068e-10
Rbbr58 netL58 0 -1084093.1503970383
Cbr58 netL58 0 -1.727365077600453e-21

* Branch 59
Rabr59 node_1 netRa59 84783.97306374945
Lbr59 netRa59 netL59 -2.3945322339132947e-10
Rbbr59 netL59 0 -975618.450176162
Cbr59 netL59 0 -2.8859798055025494e-21

* Branch 60
Rabr60 node_1 netRa60 -274032.96352520015
Lbr60 netRa60 netL60 -2.638192846848659e-10
Rbbr60 netL60 0 540378.953311806
Cbr60 netL60 0 -1.7834301546492213e-21

* Branch 61
Rabr61 node_1 netRa61 154298.29042904548
Lbr61 netRa61 netL61 -3.428231761719265e-10
Rbbr61 netL61 0 -507961.6170379043
Cbr61 netL61 0 -4.3655152379207156e-21

* Branch 62
Rabr62 node_1 netRa62 86442.23437768547
Lbr62 netRa62 netL62 -1.8423978126581513e-10
Rbbr62 netL62 0 -1132671.0804320984
Cbr62 netL62 0 -1.8783032101037832e-21

* Branch 63
Rabr63 node_1 netRa63 94201.65807350216
Lbr63 netRa63 netL63 -1.9176923733257716e-10
Rbbr63 netL63 0 -1001998.1040704352
Cbr63 netL63 0 -2.0281888208235348e-21

* Branch 64
Rabr64 node_1 netRa64 114302.1183012913
Lbr64 netRa64 netL64 1.7280268638337392e-10
Rbbr64 netL64 0 -695094.0015162415
Cbr64 netL64 0 2.177372535309686e-21

* Branch 65
Rabr65 node_1 netRa65 354842.00570296723
Lbr65 netRa65 netL65 2.3341389959530434e-10
Rbbr65 netL65 0 -618691.9900351671
Cbr65 netL65 0 1.0637062146869933e-21

* Branch 66
Rabr66 node_1 netRa66 447302.1304621728
Lbr66 netRa66 netL66 -4.271915734254416e-10
Rbbr66 netL66 0 -920322.0276496577
Cbr66 netL66 0 -1.0370230968358913e-21

* Branch 67
Rabr67 node_1 netRa67 376558.38534929074
Lbr67 netRa67 netL67 -3.059346425704384e-10
Rbbr67 netL67 0 -655377.9794246895
Cbr67 netL67 0 -1.2389802211811195e-21

* Branch 68
Rabr68 node_1 netRa68 1085154.3630374959
Lbr68 netRa68 netL68 -3.901748552694756e-10
Rbbr68 netL68 0 -1374587.3995451198
Cbr68 netL68 0 -2.6151173737517833e-22

* Branch 69
Rabr69 node_1 netRa69 34548.60363424101
Lbr69 netRa69 netL69 -1.973003403894922e-10
Rbbr69 netL69 0 -1859974.5220063783
Cbr69 netL69 0 -3.0591283886078028e-21

* Branch 70
Rabr70 node_1 netRa70 -46610.82992682521
Lbr70 netRa70 netL70 -3.365338474005415e-10
Rbbr70 netL70 0 1934911.549437783
Cbr70 netL70 0 -3.747085174210252e-21

* Branch 71
Rabr71 node_1 netRa71 -66375.79126875788
Lbr71 netRa71 netL71 -1.7597250571783944e-10
Rbbr71 netL71 0 722504.0753517589
Cbr71 netL71 0 -3.674984968442499e-21

* Branch 72
Rabr72 node_1 netRa72 172197.43254405973
Lbr72 netRa72 netL72 -4.1564491171888284e-10
Rbbr72 netL72 0 -662888.5019494534
Cbr72 netL72 0 -3.636276997932023e-21

* Branch 73
Rabr73 node_1 netRa73 29347.96717728647
Lbr73 netRa73 netL73 -6.257884433755777e-10
Rbbr73 netL73 0 -9839112.626600254
Cbr73 netL73 0 -2.1450596104908287e-21

* Branch 74
Rabr74 node_1 netRa74 -11224.021294439988
Lbr74 netRa74 netL74 -2.9989431436463247e-10
Rbbr74 netL74 0 18457099.917889107
Cbr74 netL74 0 -1.4652635162234554e-21

* Branch 75
Rabr75 node_1 netRa75 -156486.37523366843
Lbr75 netRa75 netL75 2.47247881849154e-10
Rbbr75 netL75 0 982508.3701259521
Cbr75 netL75 0 1.6070777240820507e-21

* Branch 76
Rabr76 node_1 netRa76 -24084.209798688382
Lbr76 netRa76 netL76 -2.719888493101353e-10
Rbbr76 netL76 0 1242262.16152548
Cbr76 netL76 0 -9.129012673132862e-21

* Branch 77
Rabr77 node_1 netRa77 7937.0248223572125
Lbr77 netRa77 netL77 -2.6165644724500296e-10
Rbbr77 netL77 0 -11617045.454573656
Cbr77 netL77 0 -2.8048063029532962e-21

* Branch 78
Rabr78 node_1 netRa78 1121699.3974779765
Lbr78 netRa78 netL78 -8.828689188553905e-10
Rbbr78 netL78 0 -1595217.1237832112
Cbr78 netL78 0 -4.932679776459767e-22

* Branch 79
Rabr79 node_1 netRa79 -126839.59069689907
Lbr79 netRa79 netL79 -5.586772753253861e-10
Rbbr79 netL79 0 2617870.4561887933
Cbr79 netL79 0 -1.685044677051499e-21

* Branch 80
Rabr80 node_1 netRa80 1714023.837914427
Lbr80 netRa80 netL80 -5.896895323295918e-10
Rbbr80 netL80 0 -2101821.61759149
Cbr80 netL80 0 -1.6366881272818276e-22

* Branch 81
Rabr81 node_1 netRa81 14714808.150913727
Lbr81 netRa81 netL81 2.267725577194213e-09
Rbbr81 netL81 0 -15348371.668686816
Cbr81 netL81 0 1.0041269173146611e-23

* Branch 82
Rabr82 node_1 netRa82 2568512.6257469854
Lbr82 netRa82 netL82 -1.7322120941551782e-09
Rbbr82 netL82 0 -3625937.012569474
Cbr82 netL82 0 -1.8596791343269728e-22

* Branch 83
Rabr83 node_1 netRa83 382935.1538786665
Lbr83 netRa83 netL83 -1.0219753144397296e-09
Rbbr83 netL83 0 -2944651.663113624
Cbr83 netL83 0 -9.058961007313597e-22

* Branch 84
Rabr84 node_1 netRa84 12823012.574129483
Lbr84 netRa84 netL84 -2.6964125115956525e-09
Rbbr84 netL84 0 -13878403.10997521
Cbr84 netL84 0 -1.5151398752781792e-23

* Branch 85
Rabr85 node_1 netRa85 6234846.680932968
Lbr85 netRa85 netL85 -1.5556690571699668e-09
Rbbr85 netL85 0 -6995887.115323972
Cbr85 netL85 0 -3.566521953051848e-23

* Branch 86
Rabr86 node_1 netRa86 2470211.5844459627
Lbr86 netRa86 netL86 -9.048513350972868e-10
Rbbr86 netL86 0 -3188406.6928252876
Cbr86 netL86 0 -1.1488427410817078e-22

* Branch 87
Rabr87 node_1 netRa87 11534331.586890833
Lbr87 netRa87 netL87 -2.155225476930708e-09
Rbbr87 netL87 0 -12344267.435059767
Cbr87 netL87 0 -1.513666535250697e-23

* Branch 88
Rabr88 node_1 netRa88 1064670.4459916332
Lbr88 netRa88 netL88 -5.654332369364657e-10
Rbbr88 netL88 0 -1594733.7372524485
Cbr88 netL88 0 -3.3299769378386537e-22

* Branch 89
Rabr89 node_1 netRa89 7460827.359669573
Lbr89 netRa89 netL89 1.7198370574088764e-09
Rbbr89 netL89 0 -7936214.396692571
Cbr89 netL89 0 2.904738064759144e-23

* Branch 90
Rabr90 node_1 netRa90 294823.15503231314
Lbr90 netRa90 netL90 -3.94285706210743e-10
Rbbr90 netL90 0 -566359.0378465967
Cbr90 netL90 0 -2.360615299949183e-21

* Branch 91
Rabr91 node_1 netRa91 977994.6978583133
Lbr91 netRa91 netL91 6.495665551504662e-10
Rbbr91 netL91 0 -1512539.3067362758
Cbr91 netL91 0 4.391992619172064e-22

* Branch 92
Rabr92 node_1 netRa92 -384261.5760588635
Lbr92 netRa92 netL92 1.8247440383364183e-10
Rbbr92 netL92 0 605557.9405767513
Cbr92 netL92 0 7.840352380927874e-22

* Branch 93
Rabr93 node_1 netRa93 -762463.9093596427
Lbr93 netRa93 netL93 3.004728875957946e-10
Rbbr93 netL93 0 1044709.8522855884
Cbr93 netL93 0 3.771503517754213e-22

* Branch 94
Rabr94 node_1 netRa94 -179076.6149656584
Lbr94 netRa94 netL94 1.7834617836727172e-10
Rbbr94 netL94 0 674063.7839210406
Cbr94 netL94 0 1.4767312622198368e-21

* Branch 95
Rabr95 node_1 netRa95 -92652.8971422058
Lbr95 netRa95 netL95 1.232067406742945e-10
Rbbr95 netL95 0 558840.2636198879
Cbr95 netL95 0 2.3770251979808217e-21

* Branch 96
Rabr96 node_1 netRa96 -115088.91782996857
Lbr96 netRa96 netL96 3.9934131097917535e-11
Rbbr96 netL96 0 158936.1408476183
Cbr96 netL96 0 2.1823813989942028e-21

* Branch 97
Rabr97 node_1 netRa97 -209399.30955134015
Lbr97 netRa97 netL97 4.859909689596806e-11
Rbbr97 netL97 0 245797.732884778
Cbr97 netL97 0 9.439862907825367e-22

* Branch 98
Rabr98 node_1 netRa98 28404.64963254128
Lbr98 netRa98 netL98 4.0284223826521204e-11
Rbbr98 netL98 0 -228612.88879784456
Cbr98 netL98 0 6.227738761727498e-21

* Branch 99
Rabr99 node_1 netRa99 -5825.083924182491
Lbr99 netRa99 netL99 8.331465805279803e-12
Rbbr99 netL99 0 44561.489849757156
Cbr99 netL99 0 3.171759814695979e-20

.ends


* Y'12
.subckt yp12 node_1 node_2
* Branch 0
Rabr0 node_1 netRa0 -62.58069107566079
Lbr0 netRa0 netL0 -1.8539132900532938e-13
Rbbr0 netL0 node_2 990.6010491386801
Cbr0 netL0 node_2 -5.495423195913943e-18

* Branch 1
Rabr1 node_1 netRa1 -62.21373002579572
Lbr1 netRa1 netL1 -1.8924516320552873e-13
Rbbr1 netL1 node_2 857.942184449639
Cbr1 netL1 node_2 -5.5622872860030776e-18

* Branch 2
Rabr2 node_1 netRa2 -1432.6654811164756
Lbr2 netRa2 netL2 7.148274216489782e-13
Rbbr2 netL2 node_2 2408.335293632243
Cbr2 netL2 node_2 2.0051075476174338e-19

* Branch 3
Rabr3 node_1 netRa3 -514.3957072856632
Lbr3 netRa3 netL3 -6.452093867445039e-13
Rbbr3 netL3 node_2 2935.6654974148
Cbr3 netL3 node_2 -4.624696622565695e-19

* Branch 4
Rabr4 node_1 netRa4 -109375.48678455772
Lbr4 netRa4 netL4 1.52049275074209e-11
Rbbr4 netL4 node_2 115097.35253143254
Cbr4 netL4 node_2 1.1992185237017718e-21

* Branch 5
Rabr5 node_1 netRa5 -57.49044210952698
Lbr5 netRa5 netL5 -2.0871222846654754e-13
Rbbr5 netL5 node_2 692.2843452108765
Cbr5 netL5 node_2 -6.33620217535906e-18

* Branch 6
Rabr6 node_1 netRa6 1.4619523144589839
Lbr6 netRa6 netL6 -2.0616635294962343e-13
Rbbr6 netL6 node_2 -12045.115363304882
Cbr6 netL6 node_2 -1.7503027104604437e-18

* Branch 7
Rabr7 node_1 netRa7 -99.79776433344638
Lbr7 netRa7 netL7 7.152775890350326e-14
Rbbr7 netL7 node_2 245.91659604609933
Cbr7 netL7 node_2 2.8378420804851562e-18

* Branch 8
Rabr8 node_1 netRa8 -684.7549483044369
Lbr8 netRa8 netL8 -2.7355302919124925e-13
Rbbr8 netL8 node_2 990.0073740525363
Cbr8 netL8 node_2 -4.0955296706741242e-19

* Branch 9
Rabr9 node_1 netRa9 -954.8366093872069
Lbr9 netRa9 netL9 2.0273664994784765e-13
Rbbr9 netL9 node_2 1100.6273552537402
Cbr9 netL9 node_2 1.9144695584438997e-19

* Branch 10
Rabr10 node_1 netRa10 7610.802261489743
Lbr10 netRa10 netL10 -7.642501421187337e-13
Rbbr10 netL10 node_2 -7876.154083022356
Cbr10 netL10 node_2 -1.2705918402286374e-20

* Branch 11
Rabr11 node_1 netRa11 -152.18028438492564
Lbr11 netRa11 netL11 1.1750007471395472e-13
Rbbr11 netL11 node_2 453.47468860087724
Cbr11 netL11 node_2 1.661612761726029e-18

* Branch 12
Rabr12 node_1 netRa12 -57.286108972104316
Lbr12 netRa12 netL12 -2.0955380041693255e-13
Rbbr12 netL12 node_2 658.3783854983067
Cbr12 netL12 node_2 -6.227126331363145e-18

* Branch 13
Rabr13 node_1 netRa13 154.53183509261112
Lbr13 netRa13 netL13 1.1686054595652173e-13
Rbbr13 netL13 node_2 -460.3911337576766
Cbr13 netL13 node_2 1.6785384146039946e-18

* Branch 14
Rabr14 node_1 netRa14 -25.53013086880497
Lbr14 netRa14 netL14 -1.109845957339489e-13
Rbbr14 netL14 node_2 1125.0274337292553
Cbr14 netL14 node_2 -4.321343405461276e-18

* Branch 15
Rabr15 node_1 netRa15 -62.35345959017306
Lbr15 netRa15 netL15 -1.9213229913253063e-13
Rbbr15 netL15 node_2 627.2812527064984
Cbr15 netL15 node_2 -5.30861209800123e-18

* Branch 16
Rabr16 node_1 netRa16 -501.5870672620703
Lbr16 netRa16 netL16 3.6702819477697156e-13
Rbbr16 netL16 node_2 1375.1020217498913
Cbr16 netL16 node_2 5.233544991225334e-19

* Branch 17
Rabr17 node_1 netRa17 9.34321398793786
Lbr17 netRa17 netL17 -9.730555393331334e-14
Rbbr17 netL17 node_2 -1875.6076978748401
Cbr17 netL17 node_2 -4.524883459033538e-18

* Branch 18
Rabr18 node_1 netRa18 -9.804416504426209
Lbr18 netRa18 netL18 -1.0184274620869301e-13
Rbbr18 netL18 node_2 2971.560790255816
Cbr18 netL18 node_2 -4.47566264430685e-18

* Branch 19
Rabr19 node_1 netRa19 89289.96312225914
Lbr19 netRa19 netL19 -2.51290689451615e-12
Rbbr19 netL19 node_2 -89477.49603721466
Cbr19 netL19 node_2 -3.1435328920988226e-22

* Branch 20
Rabr20 node_1 netRa20 -59.42806265159106
Lbr20 netRa20 netL20 -2.0856819478048247e-13
Rbbr20 netL20 node_2 621.5809437400084
Cbr20 netL20 node_2 -6.016926082794956e-18

* Branch 21
Rabr21 node_1 netRa21 -48.21768523094178
Lbr21 netRa21 netL21 -1.2076476233302352e-13
Rbbr21 netL21 node_2 638.7414594894476
Cbr21 netL21 node_2 -4.093712896238499e-18

* Branch 22
Rabr22 node_1 netRa22 -53.92523418992264
Lbr22 netRa22 netL22 -2.1451257388759233e-13
Rbbr22 netL22 node_2 629.1301927330903
Cbr22 netL22 node_2 -6.772100285146472e-18

* Branch 23
Rabr23 node_1 netRa23 -30.19488435504372
Lbr23 netRa23 netL23 -1.4023659204673002e-13
Rbbr23 netL23 node_2 1192.8715796883303
Cbr23 netL23 node_2 -4.215927016099918e-18

* Branch 24
Rabr24 node_1 netRa24 -517.6498899928202
Lbr24 netRa24 netL24 -2.48640014706122e-13
Rbbr24 netL24 node_2 838.8826959954695
Cbr24 netL24 node_2 -5.771266452232396e-19

* Branch 25
Rabr25 node_1 netRa25 16.95649902719069
Lbr25 netRa25 netL25 4.403887672240018e-13
Rbbr25 netL25 node_2 -51482.65908422327
Cbr25 netL25 node_2 8.763388245216724e-19

* Branch 26
Rabr26 node_1 netRa26 -156.3234116283897
Lbr26 netRa26 netL26 8.989252726740378e-13
Rbbr26 netL26 node_2 15379.851953589005
Cbr26 netL26 node_2 3.4275898605164103e-19

* Branch 27
Rabr27 node_1 netRa27 -862.4588893182901
Lbr27 netRa27 netL27 -4.573656722669933e-13
Rbbr27 netL27 node_2 1552.5328060510942
Cbr27 netL27 node_2 -3.4394153981497186e-19

* Branch 28
Rabr28 node_1 netRa28 8.859689523074115
Lbr28 netRa28 netL28 -1.2537136254106608e-13
Rbbr28 netL28 node_2 -5115.743347749456
Cbr28 netL28 node_2 -2.3414118531002054e-18

* Branch 29
Rabr29 node_1 netRa29 -59.12158137443745
Lbr29 netRa29 netL29 -1.5785245957477006e-13
Rbbr29 netL29 node_2 630.5720562851552
Cbr29 netL29 node_2 -4.373046988161978e-18

* Branch 30
Rabr30 node_1 netRa30 -60.65600982191219
Lbr30 netRa30 netL30 -1.6026286647968268e-13
Rbbr30 netL30 node_2 587.9658450755225
Cbr30 netL30 node_2 -4.632348856590795e-18

* Branch 31
Rabr31 node_1 netRa31 -491.82534957397354
Lbr31 netRa31 netL31 -3.7678936214277116e-13
Rbbr31 netL31 node_2 1331.7974888781744
Cbr31 netL31 node_2 -5.802272309208809e-19

* Branch 32
Rabr32 node_1 netRa32 -23.45235047222287
Lbr32 netRa32 netL32 -1.3472022712012963e-13
Rbbr32 netL32 node_2 1273.1180144435411
Cbr32 netL32 node_2 -4.792808596512668e-18

* Branch 33
Rabr33 node_1 netRa33 100.02014718170315
Lbr33 netRa33 netL33 -1.475150144933886e-13
Rbbr33 netL33 node_2 -619.3657081296749
Cbr33 netL33 node_2 -2.34723131588011e-18

* Branch 34
Rabr34 node_1 netRa34 -64.85600243436076
Lbr34 netRa34 netL34 -1.7648170651437114e-13
Rbbr34 netL34 node_2 587.6853205718126
Cbr34 netL34 node_2 -4.756384406866584e-18

* Branch 35
Rabr35 node_1 netRa35 -55.032020035601924
Lbr35 netRa35 netL35 -2.3940722620512824e-13
Rbbr35 netL35 node_2 610.2551678952375
Cbr35 netL35 node_2 -7.430009968873201e-18

* Branch 36
Rabr36 node_1 netRa36 -36.470896460758695
Lbr36 netRa36 netL36 -1.2527753773238529e-13
Rbbr36 netL36 node_2 813.9290073348369
Cbr36 netL36 node_2 -4.357115880614507e-18

* Branch 37
Rabr37 node_1 netRa37 971.4146929189425
Lbr37 netRa37 netL37 9.788608967090214e-13
Rbbr37 netL37 node_2 -4090.0352535072348
Cbr37 netL37 node_2 2.4841024306014845e-19

* Branch 38
Rabr38 node_1 netRa38 -1296.9643370518668
Lbr38 netRa38 netL38 6.960059526687515e-13
Rbbr38 netL38 node_2 2240.4451459359398
Cbr38 netL38 node_2 2.3849347107818596e-19

* Branch 39
Rabr39 node_1 netRa39 -88.31075422567413
Lbr39 netRa39 netL39 -2.060210927051296e-13
Rbbr39 netL39 node_2 563.3857163316061
Cbr39 netL39 node_2 -4.199850883303865e-18

* Branch 40
Rabr40 node_1 netRa40 -51.6785255457787
Lbr40 netRa40 netL40 -1.458824672080668e-13
Rbbr40 netL40 node_2 627.669809837246
Cbr40 netL40 node_2 -4.572060296664842e-18

* Branch 41
Rabr41 node_1 netRa41 8644.436671738453
Lbr41 netRa41 netL41 -2.0187930764058717e-12
Rbbr41 netL41 node_2 -10040.168296132246
Cbr41 netL41 node_2 -2.324523510615043e-20

* Branch 42
Rabr42 node_1 netRa42 132.50765689689158
Lbr42 netRa42 netL42 2.435020651842608e-12
Rbbr42 netL42 node_2 -77633.55144951896
Cbr42 netL42 node_2 2.4544730017904814e-19

* Branch 43
Rabr43 node_1 netRa43 -1563.8531518991506
Lbr43 netRa43 netL43 1.4808282604147074e-12
Rbbr43 netL43 node_2 3712.065606337641
Cbr43 netL43 node_2 2.546428300102819e-19

* Branch 44
Rabr44 node_1 netRa44 11348.749428773379
Lbr44 netRa44 netL44 8.108258120525591e-12
Rbbr44 netL44 node_2 -21857.872479963553
Cbr44 netL44 node_2 3.27202899867656e-20

* Branch 45
Rabr45 node_1 netRa45 -638.8184485192609
Lbr45 netRa45 netL45 5.566847885411315e-13
Rbbr45 netL45 node_2 1842.6115091250708
Cbr45 netL45 node_2 4.723460373170252e-19

* Branch 46
Rabr46 node_1 netRa46 -215.54119563413838
Lbr46 netRa46 netL46 4.97757274242964e-13
Rbbr46 netL46 node_2 3007.2186118907207
Cbr46 netL46 node_2 7.660272209960185e-19

* Branch 47
Rabr47 node_1 netRa47 21568.801887295358
Lbr47 netRa47 netL47 1.075384199777277e-11
Rbbr47 netL47 node_2 -32083.02523463189
Cbr47 netL47 node_2 1.5548257770916648e-20

* Branch 48
Rabr48 node_1 netRa48 372204.7252058415
Lbr48 netRa48 netL48 -3.0980358853001274e-11
Rbbr48 netL48 node_2 -376631.8513707993
Cbr48 netL48 node_2 -2.2098008023464918e-22

* Branch 49
Rabr49 node_1 netRa49 187467.80751448643
Lbr49 netRa49 netL49 1.3471397329167405e-11
Rbbr49 netL49 node_2 -189268.40690595732
Cbr49 netL49 node_2 3.796961100466016e-22

* Branch 50
Rabr50 node_1 netRa50 903458.258688701
Lbr50 netRa50 netL50 5.154000546769364e-11
Rbbr50 netL50 node_2 -909672.2632517148
Cbr50 netL50 node_2 6.271473538986171e-23

* Branch 51
Rabr51 node_1 netRa51 13216176.973375091
Lbr51 netRa51 netL51 -8.146549591876895e-11
Rbbr51 netL51 node_2 -13217695.558979325
Cbr51 netL51 node_2 -4.663481612441336e-25

* Branch 52
Rabr52 node_1 netRa52 159670.80986743682
Lbr52 netRa52 netL52 1.9098107967005588e-11
Rbbr52 netL52 node_2 -164263.8153199847
Cbr52 netL52 node_2 7.282114521854144e-22

* Branch 53
Rabr53 node_1 netRa53 -10179.859007534234
Lbr53 netRa53 netL53 5.505355948515786e-12
Rbbr53 netL53 node_2 15433.909827626776
Cbr53 netL53 node_2 3.5030967706656246e-20

* Branch 54
Rabr54 node_1 netRa54 7432.498174528193
Lbr54 netRa54 netL54 -6.299371917020863e-12
Rbbr54 netL54 node_2 -15382.168319411225
Cbr54 netL54 node_2 -5.508356821297833e-20

* Branch 55
Rabr55 node_1 netRa55 4139.171326619987
Lbr55 netRa55 netL55 8.510194325017899e-12
Rbbr55 netL55 node_2 -40246.108069663605
Cbr55 netL55 node_2 5.111512848703181e-20

* Branch 56
Rabr56 node_1 netRa56 -93133.5377538203
Lbr56 netRa56 netL56 -1.6839031096742724e-11
Rbbr56 netL56 node_2 98955.07292425055
Cbr56 netL56 node_2 -1.8272355265589462e-21

* Branch 57
Rabr57 node_1 netRa57 19986.80818709938
Lbr57 netRa57 netL57 -5.6324220940246185e-12
Rbbr57 netL57 node_2 -23424.308448928445
Cbr57 netL57 node_2 -1.2029718464693292e-20

* Branch 58
Rabr58 node_1 netRa58 -835.8770999860203
Lbr58 netRa58 netL58 7.314994687998328e-12
Rbbr58 netL58 node_2 104652.38984179351
Cbr58 netL58 node_2 8.344770167291228e-20

* Branch 59
Rabr59 node_1 netRa59 -68560.8637613778
Lbr59 netRa59 netL59 2.4910664061260447e-11
Rbbr59 netL59 node_2 82863.31424948243
Cbr59 netL59 node_2 4.3844610318973224e-21

* Branch 60
Rabr60 node_1 netRa60 5261.286365515147
Lbr60 netRa60 netL60 5.277001561525046e-12
Rbbr60 netL60 node_2 -12687.020900022895
Cbr60 netL60 node_2 7.906900832884099e-20

* Branch 61
Rabr61 node_1 netRa61 41036.404616412496
Lbr61 netRa61 netL61 6.618581586347463e-12
Rbbr61 netL61 node_2 -43404.32035041154
Cbr61 netL61 node_2 3.7159253900962146e-21

* Branch 62
Rabr62 node_1 netRa62 -386.5395476194343
Lbr62 netRa62 netL62 -4.358133340616506e-12
Rbbr62 netL62 node_2 23232.200359281516
Cbr62 netL62 node_2 -4.853831424523869e-19

* Branch 63
Rabr63 node_1 netRa63 48949.341431215544
Lbr63 netRa63 netL63 -1.851148207107575e-11
Rbbr63 netL63 node_2 -57616.096483053436
Cbr63 netL63 node_2 -6.5637160786974104e-21

* Branch 64
Rabr64 node_1 netRa64 -481.4123240141128
Lbr64 netRa64 netL64 -4.843529153669744e-12
Rbbr64 netL64 node_2 20811.987285703053
Cbr64 netL64 node_2 -4.834438054024574e-19

* Branch 65
Rabr65 node_1 netRa65 -509.49424784466004
Lbr65 netRa65 netL65 -4.731867442773119e-12
Rbbr65 netL65 node_2 19876.4700948121
Cbr65 netL65 node_2 -4.6726175636526e-19

* Branch 66
Rabr66 node_1 netRa66 20255.21155414322
Lbr66 netRa66 netL66 7.675865661187641e-12
Rbbr66 netL66 node_2 -27183.786955569678
Cbr66 netL66 node_2 1.3940577837544292e-20

* Branch 67
Rabr67 node_1 netRa67 7959.026049510137
Lbr67 netRa67 netL67 5.294846436400066e-12
Rbbr67 netL67 node_2 -15967.36705808941
Cbr67 netL67 node_2 4.166415168774403e-20

* Branch 68
Rabr68 node_1 netRa68 -134.1448438421118
Lbr68 netRa68 netL68 -3.56008572006523e-12
Rbbr68 netL68 node_2 46413.328064614616
Cbr68 netL68 node_2 -5.719351459681622e-19

* Branch 69
Rabr69 node_1 netRa69 9115.634902724565
Lbr69 netRa69 netL69 -1.2569452560400302e-11
Rbbr69 netL69 node_2 -28546.10947029544
Cbr69 netL69 node_2 -4.830296177012301e-20

* Branch 70