* netlist generated with vector fitting poles and residues

.subckt total_network node_1 node_2 
X_11 node_1 0 yp11
X_12 node_1 node_2 yp12
X_22 node_2 0 yp22
.ends


* Y'11
.subckt yp11 node_1 0
* Branch 0
Rabr0 node_1 netRa0 414476.48140188813
Lbr0 netRa0 netL0 3.887563647814052e-10
Rbbr0 netL0 0 -1355496.3877445655
Cbr0 netL0 0 7.079979570302878e-22

* Branch 1
Rabr1 node_1 netRa1 595296666.2598804
Lbr1 netRa1 netL1 -7.505893627676451e-09
Rbbr1 netL1 0 -595518367.6129112
Cbr1 netL1 0 -2.1166322460437052e-26

* Branch 2
Rabr2 node_1 netRa2 355756.73483245855
Lbr2 netRa2 netL2 2.580368785481103e-10
Rbbr2 netL2 0 -934716.7388529332
Cbr2 netL2 0 7.893788906612281e-22

* Branch 3
Rabr3 node_1 netRa3 486272.76953370863
Lbr3 netRa3 netL3 2.4394434128439403e-10
Rbbr3 netL3 0 -788614.3834195045
Cbr3 netL3 0 6.434496298243049e-22

* Branch 4
Rabr4 node_1 netRa4 -85257.02826451746
Lbr4 netRa4 netL4 -2.446927895729708e-10
Rbbr4 netL4 0 829155.0676256304
Cbr4 netL4 0 -3.687612325533523e-21

* Branch 5
Rabr5 node_1 netRa5 257809.65565702156
Lbr5 netRa5 netL5 2.3989549430662356e-10
Rbbr5 netL5 0 -980356.916492761
Cbr5 netL5 0 9.67723496347635e-22

* Branch 6
Rabr6 node_1 netRa6 6700707.999203351
Lbr6 netRa6 netL6 -1.401076762238484e-09
Rbbr6 netL6 0 -7322211.643311375
Cbr6 netL6 0 -2.844197618635254e-23

* Branch 7
Rabr7 node_1 netRa7 6714036029.931326
Lbr7 netRa7 netL7 -4.597589538975789e-08
Rbbr7 netL7 0 -6714563511.265519
Cbr7 netL7 0 -1.019705675381903e-27

* Branch 8
Rabr8 node_1 netRa8 4678549.754083234
Lbr8 netRa8 netL8 1.348600847119846e-09
Rbbr8 netL8 0 -5382356.510907061
Cbr8 netL8 0 5.382882402308889e-23

* Branch 9
Rabr9 node_1 netRa9 134217544.16775689
Lbr9 netRa9 netL9 3.503047875847051e-09
Rbbr9 netL9 0 -134480601.83569193
Cbr9 netL9 0 1.9415883752164937e-25

* Branch 10
Rabr10 node_1 netRa10 271420.47237451817
Lbr10 netRa10 netL10 1.777618098689261e-10
Rbbr10 netL10 0 -553478.6912262423
Cbr10 netL10 0 1.1956941020254264e-21

* Branch 11
Rabr11 node_1 netRa11 17449770.1905141
Lbr11 netRa11 netL11 1.1668008456524477e-09
Rbbr11 netL11 0 -17560790.897877827
Cbr11 netL11 0 3.811657479609553e-24

* Branch 12
Rabr12 node_1 netRa12 8968003.159915391
Lbr12 netRa12 netL12 -6.601914246690106e-10
Rbbr12 netL12 0 -9134960.145515803
Cbr12 netL12 0 -8.050007983949907e-24

* Branch 13
Rabr13 node_1 netRa13 6837737.4213986425
Lbr13 netRa13 netL13 9.903356550181433e-10
Rbbr13 netL13 0 -7236441.600988305
Cbr13 netL13 0 2.0056475674949507e-23

* Branch 14
Rabr14 node_1 netRa14 682867.003616919
Lbr14 netRa14 netL14 -4.675057614662034e-10
Rbbr14 netL14 0 -1314629.9591516159
Cbr14 netL14 0 -5.158302415135117e-22

* Branch 15
Rabr15 node_1 netRa15 -1232828.433723843
Lbr15 netRa15 netL15 -6.294261752182286e-10
Rbbr15 netL15 0 1418646.9350645118
Cbr15 netL15 0 -3.619265974398646e-22

* Branch 16
Rabr16 node_1 netRa16 10726826.382466394
Lbr16 netRa16 netL16 1.288741316667207e-09
Rbbr16 netL16 0 -11235642.927088547
Cbr16 netL16 0 1.0706996797645234e-23

* Branch 17
Rabr17 node_1 netRa17 402156.8998362479
Lbr17 netRa17 netL17 -1.930514047272723e-10
Rbbr17 netL17 0 -607108.415142285
Cbr17 netL17 0 -7.865936727840716e-22

* Branch 18
Rabr18 node_1 netRa18 -1354510.3831319248
Lbr18 netRa18 netL18 -6.10398391501598e-10
Rbbr18 netL18 0 1525322.2344613636
Cbr18 netL18 0 -2.9686950091939375e-22

* Branch 19
Rabr19 node_1 netRa19 1620759.6060235214
Lbr19 netRa19 netL19 -5.391790068781643e-10
Rbbr19 netL19 0 -1865032.8359824345
Cbr19 netL19 0 -1.7774754390392288e-22

* Branch 20
Rabr20 node_1 netRa20 3051377.8944083694
Lbr20 netRa20 netL20 -4.672347763098183e-10
Rbbr20 netL20 0 -3164201.938620008
Cbr20 netL20 0 -4.831915036968247e-23

* Branch 21
Rabr21 node_1 netRa21 826624.0794897809
Lbr21 netRa21 netL21 -5.433874631870209e-10
Rbbr21 netL21 0 -1497653.5565640484
Cbr21 netL21 0 -4.361701337028645e-22

* Branch 22
Rabr22 node_1 netRa22 6626.893465684433
Lbr22 netRa22 netL22 1.719903201976538e-10
Rbbr22 netL22 0 -3123020.4442858812
Cbr22 netL22 0 1.0896182664492996e-20

* Branch 23
Rabr23 node_1 netRa23 82602.26149040491
Lbr23 netRa23 netL23 -2.581992685615447e-10
Rbbr23 netL23 0 -582170.7174207667
Cbr23 netL23 0 -5.2243839445175424e-21

* Branch 24
Rabr24 node_1 netRa24 -93140.19931271694
Lbr24 netRa24 netL24 -2.388434942731368e-10
Rbbr24 netL24 0 712047.6002776425
Cbr24 netL24 0 -3.681831975073956e-21

* Branch 25
Rabr25 node_1 netRa25 530451.5031682441
Lbr25 netRa25 netL25 1.499937602595732e-10
Rbbr25 netL25 0 -656652.9552892416
Cbr25 netL25 0 4.316569240409229e-22

* Branch 26
Rabr26 node_1 netRa26 49180.85683124922
Lbr26 netRa26 netL26 3.346442162925014e-11
Rbbr26 netL26 0 -129802.40793730773
Cbr26 netL26 0 5.2723055239519784e-21

* Branch 27
Rabr27 node_1 netRa27 75996.94374488856
Lbr27 netRa27 netL27 1.9843739284380786e-10
Rbbr27 netL27 0 -482807.0830577273
Cbr27 netL27 0 5.51771604225942e-21

* Branch 28
Rabr28 node_1 netRa28 233149.35014725412
Lbr28 netRa28 netL28 -3.5395818812552626e-10
Rbbr28 netL28 0 -601199.6126543933
Cbr28 netL28 0 -2.4974677532651322e-21

* Branch 29
Rabr29 node_1 netRa29 1951701.4963087083
Lbr29 netRa29 netL29 -3.99637014495378e-10
Rbbr29 netL29 0 -2092042.3010939225
Cbr29 netL29 0 -9.773797460847007e-23

* Branch 30
Rabr30 node_1 netRa30 168104.7324078113
Lbr30 netRa30 netL30 -1.9597023489939282e-10
Rbbr30 netL30 0 -523434.14414803113
Cbr30 netL30 0 -2.2104151684316753e-21

* Branch 31
Rabr31 node_1 netRa31 423274.8765852903
Lbr31 netRa31 netL31 1.4842991641871032e-10
Rbbr31 netL31 0 -574973.3563339389
Cbr31 netL31 0 6.11228480254709e-22

* Branch 32
Rabr32 node_1 netRa32 20198164.96034675
Lbr32 netRa32 netL32 -1.1431350696939273e-09
Rbbr32 netL32 0 -20345222.647322938
Cbr32 netL32 0 -2.7808099136193875e-24

* Branch 33
Rabr33 node_1 netRa33 -725244.1963912885
Lbr33 netRa33 netL33 -5.286430833320138e-10
Rbbr33 netL33 0 940144.6871644761
Cbr33 netL33 0 -7.788260043814709e-22

* Branch 34
Rabr34 node_1 netRa34 981378.3297779175
Lbr34 netRa34 netL34 2.1275438071141688e-10
Rbbr34 netL34 0 -1138863.1385261903
Cbr34 netL34 0 1.9060618176400296e-22

* Branch 35
Rabr35 node_1 netRa35 3843936.3132752758
Lbr35 netRa35 netL35 -1.715689073437861e-09
Rbbr35 netL35 0 -5828072.035831923
Cbr35 netL35 0 -7.638367263817796e-23

* Branch 36
Rabr36 node_1 netRa36 2104337.640354159
Lbr36 netRa36 netL36 1.4468533047240664e-09
Rbbr36 netL36 0 -2574475.4894923936
Cbr36 netL36 0 2.6811042997330115e-22

* Branch 37
Rabr37 node_1 netRa37 281663.1725117496
Lbr37 netRa37 netL37 2.62671932859272e-10
Rbbr37 netL37 0 -590652.3755098474
Cbr37 netL37 0 1.5864737765889038e-21

* Branch 38
Rabr38 node_1 netRa38 693220.917856639
Lbr38 netRa38 netL38 -2.124108975368438e-10
Rbbr38 netL38 0 -866608.1403305031
Cbr38 netL38 0 -3.530570550863708e-22

* Branch 39
Rabr39 node_1 netRa39 838779.4211722161
Lbr39 netRa39 netL39 -2.7141582933942407e-10
Rbbr39 netL39 0 -1019539.5611201286
Cbr39 netL39 0 -3.1691081051853113e-22

* Branch 40
Rabr40 node_1 netRa40 884914.2910663267
Lbr40 netRa40 netL40 -2.719662387986462e-10
Rbbr40 netL40 0 -1052874.3708471002
Cbr40 netL40 0 -2.914982381219792e-22

* Branch 41
Rabr41 node_1 netRa41 48068.7688761201
Lbr41 netRa41 netL41 -1.0395892623742593e-10
Rbbr41 netL41 0 -388326.88180937344
Cbr41 netL41 0 -5.515869497025851e-21

* Branch 42
Rabr42 node_1 netRa42 -72253.20469912367
Lbr42 netRa42 netL42 -2.2720507138587039e-10
Rbbr42 netL42 0 798253.295043312
Cbr42 netL42 0 -3.9930573845757844e-21

* Branch 43
Rabr43 node_1 netRa43 921143.2815170797
Lbr43 netRa43 netL43 -2.8700147980718205e-10
Rbbr43 netL43 0 -1091677.638313929
Cbr43 netL43 0 -2.8503120041527567e-22

* Branch 44
Rabr44 node_1 netRa44 2698981.5904697566
Lbr44 netRa44 netL44 8.731625865059637e-10
Rbbr44 netL44 0 -3039090.4857901926
Cbr44 netL44 0 1.0659599832865283e-22

* Branch 45
Rabr45 node_1 netRa45 -218663.70591324675
Lbr45 netRa45 netL45 -2.1475067920314015e-10
Rbbr45 netL45 0 370912.1987428167
Cbr45 netL45 0 -2.6577616868148313e-21

* Branch 46
Rabr46 node_1 netRa46 3392489371.6443124
Lbr46 netRa46 netL46 1.573842684225211e-08
Rbbr46 netL46 0 -3392652445.122111
Cbr46 netL46 0 1.3674481330351707e-27

* Branch 47
Rabr47 node_1 netRa47 -57284.208571625764
Lbr47 netRa47 netL47 2.261534011618886e-10
Rbbr47 netL47 0 654983.0940100783
Cbr47 netL47 0 5.942076237098701e-21

* Branch 48
Rabr48 node_1 netRa48 206798947.48720932
Lbr48 netRa48 netL48 -3.611243459171397e-09
Rbbr48 netL48 0 -206971210.26755908
Cbr48 netL48 0 -8.436712585825185e-26

* Branch 49
Rabr49 node_1 netRa49 -104323.82190539206
Lbr49 netRa49 netL49 -3.921458986533371e-10
Rbbr49 netL49 0 993889.4109562635
Cbr49 netL49 0 -3.825149417514083e-21

* Branch 50
Rabr50 node_1 netRa50 -2111082.1553059714
Lbr50 netRa50 netL50 8.444666921258737e-10
Rbbr50 netL50 0 2285622.9039238296
Cbr50 netL50 0 1.7482861692422948e-22

* Branch 51
Rabr51 node_1 netRa51 -111541.00797511669
Lbr51 netRa51 netL51 -2.26864259411099e-10
Rbbr51 netL51 0 513884.4307375319
Cbr51 netL51 0 -3.978566651125464e-21

* Branch 52
Rabr52 node_1 netRa52 171627.11604617638
Lbr52 netRa52 netL52 1.7199590899612245e-10
Rbbr52 netL52 0 -729080.3871638993
Cbr52 netL52 0 1.3779270587834702e-21

* Branch 53
Rabr53 node_1 netRa53 -632893.307477669
Lbr53 netRa53 netL53 -3.260213032021906e-10
Rbbr53 netL53 0 758577.6106280768
Cbr53 netL53 0 -6.79930762102565e-22

* Branch 54
Rabr54 node_1 netRa54 571944.0408868392
Lbr54 netRa54 netL54 -4.693578841701041e-10
Rbbr54 netL54 0 -1139343.282920003
Cbr54 netL54 0 -7.18983841870224e-22

* Branch 55
Rabr55 node_1 netRa55 1141998.8906765603
Lbr55 netRa55 netL55 -5.594875044329313e-10
Rbbr55 netL55 0 -1587052.8536307472
Cbr55 netL55 0 -3.084205488630102e-22

* Branch 56
Rabr56 node_1 netRa56 837384.5417653923
Lbr56 netRa56 netL56 -3.1277539247756865e-10
Rbbr56 netL56 0 -1142255.2676115595
Cbr56 netL56 0 -3.2677401060605583e-22

* Branch 57
Rabr57 node_1 netRa57 100320257.93287526
Lbr57 netRa57 netL57 -4.331929187582376e-09
Rbbr57 netL57 0 -100650086.95559467
Cbr57 netL57 0 -4.289962081989629e-25

* Branch 58
Rabr58 node_1 netRa58 3989090.994428651
Lbr58 netRa58 netL58 -9.648069305555127e-10
Rbbr58 netL58 0 -4494880.763283733
Cbr58 netL58 0 -5.379151127825912e-23

* Branch 59
Rabr59 node_1 netRa59 203719656.51099873
Lbr59 netRa59 netL59 -6.5615330596806605e-09
Rbbr59 netL59 0 -204166801.78983405
Cbr59 netL59 0 -1.5775050412674639e-25

* Branch 60
Rabr60 node_1 netRa60 4940692.42849858
Lbr60 netRa60 netL60 1.21585083529536e-09
Rbbr60 netL60 0 -5373593.1767965
Cbr60 netL60 0 4.5809176145000313e-23

* Branch 61
Rabr61 node_1 netRa61 7765523.710558203
Lbr61 netRa61 netL61 5.928610949030792e-10
Rbbr61 netL61 0 -7908018.049797745
Cbr61 netL61 0 9.654973618567706e-24

* Branch 62
Rabr62 node_1 netRa62 -583064.3266689259
Lbr62 netRa62 netL62 6.566219132781684e-10
Rbbr62 netL62 0 945879.8649444891
Cbr62 netL62 0 1.189418351700811e-21

* Branch 63
Rabr63 node_1 netRa63 259820.1716123109
Lbr63 netRa63 netL63 4.414549133409172e-10
Rbbr63 netL63 0 -2135272.3592433822
Cbr63 netL63 0 7.9685285654366055e-22

* Branch 64
Rabr64 node_1 netRa64 9041.965634080309
Lbr64 netRa64 netL64 -1.2173828654074592e-10
Rbbr64 netL64 0 -2077425.7860979014
Cbr64 netL64 0 -6.40890777433692e-21

* Branch 65
Rabr65 node_1 netRa65 5320586.8535108045
Lbr65 netRa65 netL65 -6.128498833526046e-10
Rbbr65 netL65 0 -5557314.28546816
Cbr65 netL65 0 -2.072563112061275e-23

* Branch 66
Rabr66 node_1 netRa66 267175.97810571216
Lbr66 netRa66 netL66 -5.208348958380209e-10
Rbbr66 netL66 0 -2155599.435748113
Cbr66 netL66 0 -9.036019677424607e-22

* Branch 67
Rabr67 node_1 netRa67 947735.1913572169
Lbr67 netRa67 netL67 -7.252488241685864e-10
Rbbr67 netL67 0 -1874893.0413499624
Cbr67 netL67 0 -4.0802205151604613e-22

* Branch 68
Rabr68 node_1 netRa68 2703576.0978250443
Lbr68 netRa68 netL68 7.484999103716268e-10
Rbbr68 netL68 0 -3384872.387863306
Cbr68 netL68 0 8.179894729669515e-23

* Branch 69
Rabr69 node_1 netRa69 5635474.6886766935
Lbr69 netRa69 netL69 -1.8653869893047964e-09
Rbbr69 netL69 0 -6755106.196060356
Cbr69 netL69 0 -4.8996767485501903e-23

* Branch 70
Rabr70 node_1 netRa70 -30388141.007169288
Lbr70 netRa70 netL70 2.610821214806339e-09
Rbbr70 netL70 0 30961383.969140954
Cbr70 netL70 0 2.774874298090518e-24

* Branch 71
Rabr71 node_1 netRa71 3801709.126320424
Lbr71 netRa71 netL71 7.533842018346412e-10
Rbbr71 netL71 0 -4263985.39285041
Cbr71 netL71 0 4.647680292771172e-23

* Branch 72
Rabr72 node_1 netRa72 -3078539.935376403
Lbr72 netRa72 netL72 3.698373662372214e-09
Rbbr72 netL72 0 5146904.102048755
Cbr72 netL72 0 2.3338069346414503e-22

* Branch 73
Rabr73 node_1 netRa73 -1469586.762041098
Lbr73 netRa73 netL73 7.356258935794854e-10
Rbbr73 netL73 0 1885073.1080893
Cbr73 netL73 0 2.655314045102574e-22

* Branch 74
Rabr74 node_1 netRa74 -59877.94150891765
Lbr74 netRa74 netL74 -2.781879826494734e-10
Rbbr74 netL74 0 1557864.9295115522
Cbr74 netL74 0 -2.9831794705260252e-21

* Branch 75
Rabr75 node_1 netRa75 -206244.33745652813
Lbr75 netRa75 netL75 -1.8333829119184884e-10
Rbbr75 netL75 0 334085.08160097187
Cbr75 netL75 0 -2.6609470145097643e-21

* Branch 76
Rabr76 node_1 netRa76 700752.1583067087
Lbr76 netRa76 netL76 -7.226446732323348e-10
Rbbr76 netL76 0 -2162251.267776109
Cbr76 netL76 0 -4.7690173488358115e-22

* Branch 77
Rabr77 node_1 netRa77 150730.3863480556
Lbr77 netRa77 netL77 2.920724526608969e-10
Rbbr77 netL77 0 -1867753.3109711672
Cbr77 netL77 0 1.0375602004685248e-21

* Branch 78
Rabr78 node_1 netRa78 -35735.31948154068
Lbr78 netRa78 netL78 -2.0843709609893267e-10
Rbbr78 netL78 0 1354769.1378413816
Cbr78 netL78 0 -4.306527302582568e-21

* Branch 79
Rabr79 node_1 netRa79 -23541087.388619483
Lbr79 netRa79 netL79 1.998348884217904e-08
Rbbr79 netL79 0 31027913.50136867
Cbr79 netL79 0 2.7358144431764215e-23

* Branch 80
Rabr80 node_1 netRa80 4209437.445119078
Lbr80 netRa80 netL80 1.88048028369076e-08
Rbbr80 netL80 0 -39309390.72825826
Cbr80 netL80 0 1.1365022561949696e-22

* Branch 81
Rabr81 node_1 netRa81 1655640.5893897659
Lbr81 netRa81 netL81 6.1204161021194855e-09
Rbbr81 netL81 0 -10591547.648711266
Cbr81 netL81 0 3.49062200377657e-22

* Branch 82
Rabr82 node_1 netRa82 20482.54830879247
Lbr82 netRa82 netL82 -2.2489614907553218e-10
Rbbr82 netL82 0 -2605350.3120083027
Cbr82 netL82 0 -4.212755058469714e-21

* Branch 83
Rabr83 node_1 netRa83 -15187.151486997152
Lbr83 netRa83 netL83 -4.887754019313526e-11
Rbbr83 netL83 0 208584.91916933536
Cbr83 netL83 0 -1.5431943159719295e-20

* Branch 84
Rabr84 node_1 netRa84 83539.95645640964
Lbr84 netRa84 netL84 -2.165005900455121e-10
Rbbr84 netL84 0 -572427.3359973856
Cbr84 netL84 0 -4.526408893057722e-21

* Branch 85
Rabr85 node_1 netRa85 441.4037018491502
Lbr85 netRa85 netL85 -6.914033024094412e-11
Rbbr85 netL85 0 -14439713.407512099
Cbr85 netL85 0 -1.0711297452910255e-20

* Branch 86
Rabr86 node_1 netRa86 -224806.05658735282
Lbr86 netRa86 netL86 -2.5106338398413245e-10
Rbbr86 netL86 0 878006.122217567
Cbr86 netL86 0 -1.2721131498309605e-21

* Branch 87
Rabr87 node_1 netRa87 -62173.15784497324
Lbr87 netRa87 netL87 -2.0088209674985753e-10
Rbbr87 netL87 0 918371.0572512114
Cbr87 netL87 0 -3.519433990729629e-21

* Branch 88
Rabr88 node_1 netRa88 146128.186480943
Lbr88 netRa88 netL88 -2.665556566846393e-10
Rbbr88 netL88 0 -620095.3377592135
Cbr88 netL88 0 -2.941079754009967e-21

* Branch 89
Rabr89 node_1 netRa89 -9923290.685288822
Lbr89 netRa89 netL89 -1.236102059547763e-09
Rbbr89 netL89 0 10352627.032012861
Cbr89 netL89 0 -1.2032493040211626e-23

* Branch 90
Rabr90 node_1 netRa90 11607565.729199834
Lbr90 netRa90 netL90 -1.0878918438468245e-09
Rbbr90 netL90 0 -11897735.077337265
Cbr90 netL90 0 -7.877247829943124e-24

* Branch 91
Rabr91 node_1 netRa91 78717.60088933689
Lbr91 netRa91 netL91 -2.15176567901104e-10
Rbbr91 netL91 0 -672840.8855576135
Cbr91 netL91 0 -4.061052342812589e-21

* Branch 92
Rabr92 node_1 netRa92 41055.642042061576
Lbr92 netRa92 netL92 -1.4105731471505573e-10
Rbbr92 netL92 0 -359262.0090251191
Cbr92 netL92 0 -9.557135250229236e-21

* Branch 93
Rabr93 node_1 netRa93 40303.62661088609
Lbr93 netRa93 netL93 -1.1429091560650535e-10
Rbbr93 netL93 0 -521371.08161690395
Cbr93 netL93 0 -5.435026122122333e-21

* Branch 94
Rabr94 node_1 netRa94 -21078.93597959106
Lbr94 netRa94 netL94 -1.5225224579127047e-10
Rbbr94 netL94 0 1225261.3760820818
Cbr94 netL94 0 -5.906282162429696e-21

* Branch 95
Rabr95 node_1 netRa95 -3241839.797899396
Lbr95 netRa95 netL95 -7.522139401394645e-10
Rbbr95 netL95 0 3400290.8707892983
Cbr95 netL95 0 -6.824760234506312e-23

* Branch 96
Rabr96 node_1 netRa96 -249035.82942351248
Lbr96 netRa96 netL96 -1.8609520452011853e-10
Rbbr96 netL96 0 366197.95665562846
Cbr96 netL96 0 -2.0415874056229956e-21

* Branch 97
Rabr97 node_1 netRa97 -1286709.1994865923
Lbr97 netRa97 netL97 -4.487162035570832e-10
Rbbr97 netL97 0 1434321.1653349625
Cbr97 netL97 0 -2.431888475983513e-22

* Branch 98
Rabr98 node_1 netRa98 -358234.6736436552
Lbr98 netRa98 netL98 -1.9971070897263342e-10
Rbbr98 netL98 0 448651.83796094527
Cbr98 netL98 0 -1.2431745032028342e-21

* Branch 99
Rabr99 node_1 netRa99 -163361.44895187105
Lbr99 netRa99 netL99 1.6178792294417613e-10
Rbbr99 netL99 0 355922.4704263336
Cbr99 netL99 0 2.7792859655106804e-21

.ends


* Y'12
.subckt yp12 node_1 node_2
* Branch 0
Rabr0 node_1 netRa0 -4548.329385620524
Lbr0 netRa0 netL0 -8.61879320682396e-12
Rbbr0 netL0 node_2 37144.25992410874
Cbr0 netL0 node_2 -1.0269269499876077e-19

* Branch 1
Rabr1 node_1 netRa1 -9655.547703585782
Lbr1 netRa1 netL1 -9.421451827577144e-12
Rbbr1 netL1 node_2 21258.612168012427
Cbr1 netL1 node_2 -6.106968841814993e-20

* Branch 2
Rabr2 node_1 netRa2 -2463.1131037610207
Lbr2 netRa2 netL2 -6.820460619888718e-12
Rbbr2 netL2 node_2 61864.411209089616
Cbr2 netL2 node_2 -1.397112680939911e-19

* Branch 3
Rabr3 node_1 netRa3 -143.79156608009507
Lbr3 netRa3 netL3 -4.81927251240386e-12
Rbbr3 netL3 node_2 -28095.957121885687
Cbr3 netL3 node_2 -1.9640687787542967e-19

* Branch 4
Rabr4 node_1 netRa4 450.4790643502964
Lbr4 netRa4 netL4 -2.7353233037655358e-12
Rbbr4 netL4 node_2 -12364.039594847836
Cbr4 netL4 node_2 -3.089517634664347e-19

* Branch 5
Rabr5 node_1 netRa5 -2068.8762582919026
Lbr5 netRa5 netL5 2.8508711751435124e-12
Rbbr5 netL5 node_2 13604.929480113527
Cbr5 netL5 node_2 9.623091486350787e-20

* Branch 6
Rabr6 node_1 netRa6 -2217.695878284633
Lbr6 netRa6 netL6 1.4046863597812456e-12
Rbbr6 netL6 node_2 4908.971732231919
Cbr6 netL6 node_2 1.265472676248742e-19

* Branch 7
Rabr7 node_1 netRa7 795.1662785060912
Lbr7 netRa7 netL7 1.1648812690625122e-12
Rbbr7 netL7 node_2 -4290.58267023373
Cbr7 netL7 node_2 3.574669882471934e-19

* Branch 8
Rabr8 node_1 netRa8 12051.621848166997
Lbr8 netRa8 netL8 3.952273945531996e-12
Rbbr8 netL8 node_2 -16703.02702866692
Cbr8 netL8 node_2 1.9827380326043002e-20

* Branch 9
Rabr9 node_1 netRa9 -3191.720117214
Lbr9 netRa9 netL9 -1.3681097241587631e-12
Rbbr9 netL9 node_2 5226.351743233781
Cbr9 netL9 node_2 -8.29849256327212e-20

* Branch 10
Rabr10 node_1 netRa10 1238.0297759023852
Lbr10 netRa10 netL10 -1.890631433349891e-12
Rbbr10 netL10 node_2 -4990.023400921194
Cbr10 netL10 node_2 -2.9438215806905185e-19

* Branch 11
Rabr11 node_1 netRa11 442.87743237809826
Lbr11 netRa11 netL11 9.28461593657386e-13
Rbbr11 netL11 node_2 -4467.272987853787
Cbr11 netL11 node_2 4.962502238183596e-19

* Branch 12
Rabr12 node_1 netRa12 -31551.594372565494
Lbr12 netRa12 netL12 3.4583760281750825e-12
Rbbr12 netL12 node_2 32721.074698082262
Cbr12 netL12 node_2 3.3404728431809807e-21

* Branch 13
Rabr13 node_1 netRa13 1169.816611479573
Lbr13 netRa13 netL13 -6.05254712565486e-12
Rbbr13 netL13 node_2 -13153.237669257307
Cbr13 netL13 node_2 -3.513013570776874e-19

* Branch 14
Rabr14 node_1 netRa14 1763.3197571357787
Lbr14 netRa14 netL14 -6.040645552591912e-13
Rbbr14 netL14 node_2 -2407.798713193065
Cbr14 netL14 node_2 -1.4119515523443436e-19

* Branch 15
Rabr15 node_1 netRa15 8809.10034957307
Lbr15 netRa15 netL15 -1.5813296537556295e-12
Rbbr15 netL15 node_2 -9545.548860024473
Cbr15 netL15 node_2 -1.8730989407487576e-20

* Branch 16
Rabr16 node_1 netRa16 6080.620655815042
Lbr16 netRa16 netL16 8.085721095571799e-13
Rbbr16 netL16 node_2 -6398.268523663684
Cbr16 netL16 node_2 2.0838087284737143e-20

* Branch 17
Rabr17 node_1 netRa17 -765.5258771862933
Lbr17 netRa17 netL17 1.0616243991014298e-12
Rbbr17 netL17 node_2 3585.6450806659313
Cbr17 netL17 node_2 3.765658745894417e-19

* Branch 18
Rabr18 node_1 netRa18 3315.6684306415937
Lbr18 netRa18 netL18 -1.3634316189247533e-12
Rbbr18 netL18 node_2 -4659.413394276335
Cbr18 netL18 node_2 -8.762416629764239e-20

* Branch 19
Rabr19 node_1 netRa19 930.4850628267898
Lbr19 netRa19 netL19 6.823857285497428e-13
Rbbr19 netL19 node_2 -2356.775718789886
Cbr19 netL19 node_2 3.1473241307932497e-19

* Branch 20
Rabr20 node_1 netRa20 20104.305544873343
Lbr20 netRa20 netL20 6.918869057153328e-12
Rbbr20 netL20 node_2 -25588.970900860953
Cbr20 netL20 node_2 1.351973435473039e-20

* Branch 21
Rabr21 node_1 netRa21 -2089.1679873645458
Lbr21 netRa21 netL21 -4.412672913292193e-12
Rbbr21 netL21 node_2 6374.314388226705
Cbr21 netL21 node_2 -3.418283387852535e-19

* Branch 22
Rabr22 node_1 netRa22 670.8690582261719
Lbr22 netRa22 netL22 -1.0497371398543144e-12
Rbbr22 netL22 node_2 -5821.211298126784
Cbr22 netL22 node_2 -2.6306824892804503e-19

* Branch 23
Rabr23 node_1 netRa23 184.71108363805214
Lbr23 netRa23 netL23 4.605450878787348e-13
Rbbr23 netL23 node_2 -3633.1091117532865
Cbr23 netL23 node_2 7.109036513308015e-19

* Branch 24
Rabr24 node_1 netRa24 28927.432438034484
Lbr24 netRa24 netL24 -3.485146595619764e-12
Rbbr24 netL24 node_2 -29690.00557509124
Cbr24 netL24 node_2 -4.0516432472923736e-21

* Branch 25
Rabr25 node_1 netRa25 912228.8076180632
Lbr25 netRa25 netL25 1.4454350266363379e-11
Rbbr25 netL25 node_2 -912851.8160170903
Cbr25 netL25 node_2 1.7361106151076064e-23

* Branch 26
Rabr26 node_1 netRa26 3832.6231077181856
Lbr26 netRa26 netL26 -1.8672974369125225e-12
Rbbr26 netL26 node_2 -5344.682056605138
Cbr26 netL26 node_2 -9.070196963316938e-20

* Branch 27
Rabr27 node_1 netRa27 3001.5010737458756
Lbr27 netRa27 netL27 -9.63370702739997e-13
Rbbr27 netL27 node_2 -3945.992879656781
Cbr27 netL27 node_2 -8.10722421722952e-20

* Branch 28
Rabr28 node_1 netRa28 -8361.608640300401
Lbr28 netRa28 netL28 -1.094031360359582e-12
Rbbr28 netL28 node_2 8843.071025981866
Cbr28 netL28 node_2 -1.4815067068953e-20

* Branch 29
Rabr29 node_1 netRa29 2934.938294898914
Lbr29 netRa29 netL29 -1.144049604896681e-12
Rbbr29 netL29 node_2 -3929.089805839541
Cbr29 netL29 node_2 -9.885465959666894e-20

* Branch 30
Rabr30 node_1 netRa30 3024.6510217709097
Lbr30 netRa30 netL30 1.143788560014836e-12
Rbbr30 netL30 node_2 -3897.407224909318
Cbr30 netL30 node_2 9.736424402293913e-20

* Branch 31
Rabr31 node_1 netRa31 -1350.1117856183619
Lbr31 netRa31 netL31 -2.899462666123085e-12
Rbbr31 netL31 node_2 4324.632139789816
Cbr31 netL31 node_2 -5.065120823886234e-19

* Branch 32
Rabr32 node_1 netRa32 2291.600546906324
Lbr32 netRa32 netL32 -8.625082703641023e-13
Rbbr32 netL32 node_2 -3258.9380180711546
Cbr32 netL32 node_2 -1.1510393839336306e-19

* Branch 33
Rabr33 node_1 netRa33 938.3801672085297
Lbr33 netRa33 netL33 -1.7736413494529754e-12
Rbbr33 netL33 node_2 -5232.118874548823
Cbr33 netL33 node_2 -3.555321822834436e-19

* Branch 34
Rabr34 node_1 netRa34 2918.125217014603
Lbr34 netRa34 netL34 -1.4116820186934115e-12
Rbbr34 netL34 node_2 -4404.852632618594
Cbr34 netL34 node_2 -1.093770721130527e-19

* Branch 35
Rabr35 node_1 netRa35 25660.35112128309
Lbr35 netRa35 netL35 6.131606969168549e-12
Rbbr35 netL35 node_2 -30489.01649504496
Cbr35 netL35 node_2 7.853186098092487e-21

* Branch 36
Rabr36 node_1 netRa36 2761.759553351607
Lbr36 netRa36 netL36 -1.9254468706733945e-12
Rbbr36 netL36 node_2 -4802.955366049448
Cbr36 netL36 node_2 -1.4455011737671225e-19

* Branch 37
Rabr37 node_1 netRa37 11545.17471694387
Lbr37 netRa37 netL37 4.004866866978394e-12
Rbbr37 netL37 node_2 -15009.642824538145
Cbr37 netL37 node_2 2.3148778001368643e-20

* Branch 38
Rabr38 node_1 netRa38 29947.978651588288
Lbr38 netRa38 netL38 5.540673006447626e-12
Rbbr38 netL38 node_2 -32062.89592278224
Cbr38 netL38 node_2 5.774431467422203e-21

* Branch 39
Rabr39 node_1 netRa39 -69781.33155756039
Lbr39 netRa39 netL39 -2.4997683414682596e-11
Rbbr39 netL39 node_2 78542.51119948283
Cbr39 netL39 node_2 -4.566666304117486e-21

* Branch 40
Rabr40 node_1 netRa40 1854.9974403264089
Lbr40 netRa40 netL40 -3.5779870355678027e-12
Rbbr40 netL40 node_2 -10062.711989360141
Cbr40 netL40 node_2 -1.905485142159522e-19

* Branch 41
Rabr41 node_1 netRa41 -2270.1818234436496
Lbr41 netRa41 netL41 -2.7756942060061437e-12
Rbbr41 netL41 node_2 3938.296239449046
Cbr41 netL41 node_2 -3.1160773301653963e-19

* Branch 42
Rabr42 node_1 netRa42 -58237233.36473126
Lbr42 netRa42 netL42 4.617573316720905e-10
Rbbr42 netL42 node_2 58239417.79877633
Cbr42 netL42 node_2 1.3614132259948444e-25

* Branch 43
Rabr43 node_1 netRa43 -7945.577809921136
Lbr43 netRa43 netL43 -4.492751789624777e-12
Rbbr43 netL43 node_2 12704.598783039859
Cbr43 netL43 node_2 -4.4547651416290276e-20

* Branch 44
Rabr44 node_1 netRa44 -26194.628130484532
Lbr44 netRa44 netL44 -8.08971445177033e-12
Rbbr44 netL44 node_2 30984.44828038505
Cbr44 netL44 node_2 -9.97179431327881e-21

* Branch 45
Rabr45 node_1 netRa45 -163977869.98222342
Lbr45 netRa45 netL45 -7.482479982630111e-10
Rbbr45 netL45 node_2 163979728.06773147
Cbr45 netL45 node_2 -2.7827398787151336e-26

* Branch 46
Rabr46 node_1 netRa46 -108691.47812288617
Lbr46 netRa46 netL46 1.7567271237138848e-11
Rbbr46 netL46 node_2 110308.74270075573
Cbr46 netL46 node_2 1.4649184968221005e-21

* Branch 47
Rabr47 node_1 netRa47 -7607.037629579046
Lbr47 netRa47 netL47 8.036698425819759e-12
Rbbr47 netL47 node_2 27369.50933265488
Cbr47 netL47 node_2 3.856282521197166e-20

* Branch 48
Rabr48 node_1 netRa48 -1173.5695947717609
Lbr48 netRa48 netL48 -2.0827695037462454e-12
Rbbr48 netL48 node_2 4473.690880970327
Cbr48 netL48 node_2 -3.971499918068684e-19

* Branch 49
Rabr49 node_1 netRa49 11178.182503010901
Lbr49 netRa49 netL49 -4.8784152915927695e-12
Rbbr49 netL49 node_2 -15673.91591330491
Cbr49 netL49 node_2 -2.78373830572262e-20

* Branch 50
Rabr50 node_1 netRa50 102161.39414998714
Lbr50 netRa50 netL50 1.9705700626506336e-11
Rbbr50 netL50 node_2 -111861.88372053792
Cbr50 netL50 node_2 1.7245168928374325e-21

* Branch 51
Rabr51 node_1 netRa51 -322906.6352398361
Lbr51 netRa51 netL51 -3.491031465317884e-11
Rbbr51 netL51 node_2 325373.3144189109
Cbr51 netL51 node_2 -3.322892792082444e-22

* Branch 52
Rabr52 node_1 netRa52 -67253.93976588252
Lbr52 netRa52 netL52 -1.4871079570366144e-11
Rbbr52 netL52 node_2 69500.45660907478
Cbr52 netL52 node_2 -3.1818504648161447e-21

* Branch 53
Rabr53 node_1 netRa53 -28255.971167706448
Lbr53 netRa53 netL53 5.147033617839698e-12
Rbbr53 netL53 node_2 28774.38324651601
Cbr53 netL53 node_2 6.330103410661101e-21

* Branch 54
Rabr54 node_1 netRa54 -166705.7408039627
Lbr54 netRa54 netL54 -1.9543208880378082e-11
Rbbr54 netL54 node_2 168137.22980327928
Cbr54 netL54 node_2 -6.972668484444149e-22

* Branch 55
Rabr55 node_1 netRa55 -28906.826387615463
Lbr55 netRa55 netL55 -5.252673856734171e-12
Rbbr55 netL55 node_2 29499.689257934577
Cbr55 netL55 node_2 -6.160085365636105e-21

* Branch 56
Rabr56 node_1 netRa56 -8445.388279767842
Lbr56 netRa56 netL56 -4.91536400659729e-12
Rbbr56 netL56 node_2 10574.376986246134
Cbr56 netL56 node_2 -5.50412716810764e-20

* Branch 57
Rabr57 node_1 netRa57 -12229.5386864159
Lbr57 netRa57 netL57 -6.380000607318893e-12
Rbbr57 netL57 node_2 14811.276618150045
Cbr57 netL57 node_2 -3.522293648160867e-20

* Branch 58
Rabr58 node_1 netRa58 -105713.27656430738
Lbr58 netRa58 netL58 -1.9850876102440796e-11
Rbbr58 netL58 node_2 108371.98892452293
Cbr58 netL58 node_2 -1.7327552072936467e-21

* Branch 59
Rabr59 node_1 netRa59 42118.315229026266
Lbr59 netRa59 netL59 1.4768597169546983e-11
Rbbr59 netL59 node_2 -55633.58258713719
Cbr59 netL59 node_2 6.303047730698847e-21

* Branch 60
Rabr60 node_1 netRa60 -56601.2413592831
Lbr60 netRa60 netL60 -1.3374600431137199e-11
Rbbr60 netL60 node_2 59256.9417017971
Cbr60 netL60 node_2 -3.987853409161506e-21

* Branch 61
Rabr61 node_1 netRa61 -3942.642681552307
Lbr61 netRa61 netL61 -2.4542575277778537e-12
Rbbr61 netL61 node_2 5064.222481636241
Cbr61 netL61 node_2 -1.2293696835320373e-19

* Branch 62
Rabr62 node_1 netRa62 55399.0152253681
Lbr62 netRa62 netL62 -1.0990113559714508e-11
Rbbr62 netL62 node_2 -60589.79059865117
Cbr62 netL62 node_2 -3.2740041998989787e-21

* Branch 63
Rabr63 node_1 netRa63 -8221.096001701464
Lbr63 netRa63 netL63 -4.647716498624117e-12
Rbbr63 netL63 node_2 10697.648008977805
Cbr63 netL63 node_2 -5.285475936101531e-20

* Branch 64
Rabr64 node_1 netRa64 -100191.81402443028
Lbr64 netRa64 netL64 -1.7697976119029496e-11
Rbbr64 netL64 node_2 102716.58548475387
Cbr64 netL64 node_2 -1.7197709681664273e-21

* Branch 65
Rabr65 node_1 netRa65 -9522.586202758184
Lbr65 netRa65 netL65 4.281258066575199e-12
Rbbr65 netL65 node_2 10522.363733235283
Cbr65 netL65 node_2 4.272095274385937e-20

* Branch 66
Rabr66 node_1 netRa66 -6896.840535493026
Lbr66 netRa66 netL66 -3.97467546908344e-12
Rbbr66 netL66 node_2 8977.82770293403
Cbr66 netL66 node_2 -6.420462334870424e-20

* Branch 67
Rabr67 node_1 netRa67 29865.47026363689
Lbr67 netRa67 netL67 1.1118167916056999e-11
Rbbr67 netL67 node_2 -40909.272087038225
Cbr67 netL67 node_2 9.101198724966172e-21

* Branch 68
Rabr68 node_1 netRa68 5486.825527804837
Lbr68 netRa68 netL68 2.1683099916878998e-11
Rbbr68 netL68 node_2 -129703.63939219169
Cbr68 netL68 node_2 3.051763062661189e-20

* Branch 69
Rabr69 node_1 netRa69 160244.62868527343
Lbr69 netRa69 netL69 2.2607239891240325e-11
Rbbr69 netL69 node_2 -168018.76265958822
Cbr69 netL69 node_2 8.39716593464522e-22

* Branch 70
Rabr70 node_1 netRa70 -585.2201493289308
Lbr70 netRa70 netL70 2.2550616647961666e-12
Rbbr70 netL70 node_2 24218.22551438981
Cbr70 netL70 node_2 1.5883210081570768e-19

* Branch 71
Rabr71 node_1 netRa71 111363.25682352175